# generated using pymatgen
data_Zn4H23C57N3ClO14F15
_symmetry_space_group_name_H-M   'P 1'
_cell_length_a   21.49489008
_cell_length_b   21.58652387
_cell_length_c   21.41361192
_cell_angle_alpha   89.76787837
_cell_angle_beta   90.77886707
_cell_angle_gamma   89.59835628
_symmetry_Int_Tables_number   1
_chemical_formula_structural   Zn4H23C57N3ClO14F15
_chemical_formula_sum   'Zn16 H92 C228 N12 Cl4 O56 F60'
_cell_volume   9934.66747399
_cell_formula_units_Z   4
loop_
 _symmetry_equiv_pos_site_id
 _symmetry_equiv_pos_as_xyz
  1  'x, y, z'
loop_
 _atom_site_type_symbol
 _atom_site_label
 _atom_site_symmetry_multiplicity
 _atom_site_fract_x
 _atom_site_fract_y
 _atom_site_fract_z
 _atom_site_occupancy
  Zn  Zn0  1  0.78048116  0.70156874  0.85534852  1.0
  Zn  Zn1  1  0.67566028  0.80556460  0.85575268  1.0
  Zn  Zn2  1  0.67752572  0.70080109  0.95990988  1.0
  Zn  Zn3  1  0.78124322  0.80445117  0.96053416  1.0
  Zn  Zn4  1  0.03048116  0.95156874  0.10534852  1.0
  Zn  Zn5  1  0.92566028  0.05556460  0.10575268  1.0
  Zn  Zn6  1  0.92752572  0.95080109  0.20990988  1.0
  Zn  Zn7  1  0.03124322  0.05445117  0.21053416  1.0
  Zn  Zn8  1  0.28048116  0.20156874  0.35534852  1.0
  Zn  Zn9  1  0.17566028  0.30556460  0.35575268  1.0
  Zn  Zn10  1  0.17752572  0.20080109  0.45990988  1.0
  Zn  Zn11  1  0.28124322  0.30445117  0.46053416  1.0
  Zn  Zn12  1  0.53048116  0.45156874  0.60534852  1.0
  Zn  Zn13  1  0.42566028  0.55556460  0.60575268  1.0
  Zn  Zn14  1  0.42752572  0.45080109  0.70990988  1.0
  Zn  Zn15  1  0.53124322  0.55445117  0.71053416  1.0
  H  H16  1  0.37715933  0.67468377  0.97000850  1.0
  H  H17  1  0.28550726  0.65337625  0.91809600  1.0
  H  H18  1  0.17418993  0.65478946  0.92440464  1.0
  H  H19  1  0.96826565  0.84385955  0.94975783  1.0
  H  H20  1  0.17302485  0.85298491  0.89539955  1.0
  H  H21  1  0.28469922  0.85239284  0.89578532  1.0
  H  H22  1  0.66876629  0.51285320  0.98555131  1.0
  H  H23  1  0.79486843  0.51383120  0.83037387  1.0
  H  H24  1  0.64774333  0.31213574  0.94510434  1.0
  H  H25  1  0.63412747  0.99986609  0.87238642  1.0
  H  H26  1  0.82267963  0.98462142  0.94291015  1.0
  H  H27  1  0.89798078  0.28382527  0.90715830  1.0
  H  H28  1  0.86467945  0.35514384  0.92314458  1.0
  H  H29  1  0.86649408  0.32704291  0.84428928  1.0
  H  H30  1  0.83821121  0.13847122  0.85243972  1.0
  H  H31  1  0.88581864  0.18040483  0.90610759  1.0
  H  H32  1  0.86668476  0.20986633  0.83025793  1.0
  H  H33  1  0.63430230  0.76878540  0.47096262  1.0
  H  H34  1  0.64248204  0.73907983  0.36942358  1.0
  H  H35  1  0.76020288  0.68201724  0.34897962  1.0
  H  H36  1  0.79696321  0.65513611  0.24942577  1.0
  H  H37  1  0.80169254  0.67868316  0.13751274  1.0
  H  H38  1  0.65814989  0.81782386  0.15955406  1.0
  H  H39  1  0.62715933  0.92468377  0.22000850  1.0
  H  H40  1  0.53550726  0.90337625  0.16809600  1.0
  H  H41  1  0.42418993  0.90478946  0.17440464  1.0
  H  H42  1  0.21826565  0.09385955  0.19975783  1.0
  H  H43  1  0.42302485  0.10298491  0.14539955  1.0
  H  H44  1  0.53469922  0.10239284  0.14578532  1.0
  H  H45  1  0.91876629  0.76285320  0.23555131  1.0
  H  H46  1  0.04486843  0.76383120  0.08037387  1.0
  H  H47  1  0.89774333  0.56213574  0.19510434  1.0
  H  H48  1  0.88412747  0.24986609  0.12238642  1.0
  H  H49  1  0.07267963  0.23462142  0.19291015  1.0
  H  H50  1  0.14798078  0.53382527  0.15715830  1.0
  H  H51  1  0.11467945  0.60514384  0.17314458  1.0
  H  H52  1  0.11649408  0.57704291  0.09428928  1.0
  H  H53  1  0.08821121  0.38847122  0.10243972  1.0
  H  H54  1  0.13581864  0.43040483  0.15610759  1.0
  H  H55  1  0.11668476  0.45986633  0.08025793  1.0
  H  H56  1  0.88430230  0.01878540  0.72096262  1.0
  H  H57  1  0.89248204  0.98907983  0.61942358  1.0
  H  H58  1  0.01020288  0.93201724  0.59897962  1.0
  H  H59  1  0.04696321  0.90513611  0.49942577  1.0
  H  H60  1  0.05169254  0.92868316  0.38751274  1.0
  H  H61  1  0.90814989  0.06782386  0.40955406  1.0
  H  H62  1  0.87715933  0.17468377  0.47000850  1.0
  H  H63  1  0.78550726  0.15337625  0.41809600  1.0
  H  H64  1  0.67418993  0.15478946  0.42440464  1.0
  H  H65  1  0.46826565  0.34385955  0.44975783  1.0
  H  H66  1  0.67302485  0.35298491  0.39539955  1.0
  H  H67  1  0.78469922  0.35239284  0.39578532  1.0
  H  H68  1  0.16876629  0.01285320  0.48555131  1.0
  H  H69  1  0.29486843  0.01383120  0.33037387  1.0
  H  H70  1  0.14774333  0.81213574  0.44510434  1.0
  H  H71  1  0.13412747  0.49986609  0.37238642  1.0
  H  H72  1  0.32267963  0.48462142  0.44291015  1.0
  H  H73  1  0.39798078  0.78382527  0.40715830  1.0
  H  H74  1  0.36467945  0.85514384  0.42314458  1.0
  H  H75  1  0.36649408  0.82704291  0.34428928  1.0
  H  H76  1  0.33821121  0.63847122  0.35243972  1.0
  H  H77  1  0.38581864  0.68040483  0.40610759  1.0
  H  H78  1  0.36668476  0.70986633  0.33025793  1.0
  H  H79  1  0.13430230  0.26878540  0.97096262  1.0
  H  H80  1  0.14248204  0.23907983  0.86942358  1.0
  H  H81  1  0.26020288  0.18201724  0.84897962  1.0
  H  H82  1  0.29696321  0.15513611  0.74942577  1.0
  H  H83  1  0.30169254  0.17868316  0.63751274  1.0
  H  H84  1  0.15814989  0.31782386  0.65955406  1.0
  H  H85  1  0.12715933  0.42468377  0.72000850  1.0
  H  H86  1  0.03550726  0.40337625  0.66809600  1.0
  H  H87  1  0.92418993  0.40478946  0.67440464  1.0
  H  H88  1  0.71826565  0.59385955  0.69975783  1.0
  H  H89  1  0.92302485  0.60298491  0.64539955  1.0
  H  H90  1  0.03469922  0.60239284  0.64578532  1.0
  H  H91  1  0.41876629  0.26285320  0.73555131  1.0
  H  H92  1  0.54486843  0.26383120  0.58037387  1.0
  H  H93  1  0.39774333  0.06213574  0.69510434  1.0
  H  H94  1  0.38412747  0.74986609  0.62238642  1.0
  H  H95  1  0.57267963  0.73462142  0.69291015  1.0
  H  H96  1  0.64798078  0.03382527  0.65715830  1.0
  H  H97  1  0.61467945  0.10514384  0.67314458  1.0
  H  H98  1  0.61649408  0.07704291  0.59428928  1.0
  H  H99  1  0.58821121  0.88847122  0.60243972  1.0
  H  H100  1  0.63581864  0.93040483  0.65610759  1.0
  H  H101  1  0.61668476  0.95986633  0.58025793  1.0
  H  H102  1  0.38430230  0.51878540  0.22096262  1.0
  H  H103  1  0.39248204  0.48907983  0.11942358  1.0
  H  H104  1  0.51020288  0.43201724  0.09897962  1.0
  H  H105  1  0.54696321  0.40513611  0.99942577  1.0
  H  H106  1  0.55169254  0.42868316  0.88751274  1.0
  H  H107  1  0.40814989  0.56782386  0.90955406  1.0
  C  C108  1  0.49736910  0.75326144  0.90748441  1.0
  C  C109  1  0.46379578  0.79596045  0.87184957  1.0
  C  C110  1  0.39891232  0.79522196  0.87028559  1.0
  C  C111  1  0.36493954  0.75234143  0.90541067  1.0
  C  C112  1  0.39977672  0.70906536  0.94092552  1.0
  C  C113  1  0.46481884  0.70937332  0.94143758  1.0
  C  C114  1  0.29613768  0.75281011  0.90654204  1.0
  C  C115  1  0.26221303  0.69818936  0.91431528  1.0
  C  C116  1  0.19714119  0.69895463  0.91696647  1.0
  C  C117  1  0.16243889  0.75394094  0.90980156  1.0
  C  C118  1  0.09352174  0.75393734  0.90969079  1.0
  C  C119  1  0.05807252  0.80372816  0.93261618  1.0
  C  C120  1  0.99303621  0.80371190  0.93170854  1.0
  C  C121  1  0.96071882  0.75271250  0.90813038  1.0
  C  C122  1  0.99461780  0.70300183  0.88545542  1.0
  C  C123  1  0.05944796  0.70378671  0.88585816  1.0
  C  C124  1  0.19642798  0.80846558  0.90169251  1.0
  C  C125  1  0.26161189  0.80798532  0.90096001  1.0
  C  C126  1  0.72995444  0.52209811  0.90674194  1.0
  C  C127  1  0.69825608  0.48908612  0.95223243  1.0
  C  C128  1  0.70409747  0.42456027  0.95534116  1.0
  C  C129  1  0.73951115  0.38988453  0.91266603  1.0
  C  C130  1  0.76897063  0.42539180  0.86658325  1.0
  C  C131  1  0.76691417  0.49011167  0.86481242  1.0
  C  C132  1  0.74303024  0.32047802  0.91522373  1.0
  C  C133  1  0.69014173  0.28723743  0.93299983  1.0
  C  C134  1  0.68926615  0.22233293  0.93817038  1.0
  C  C135  1  0.73894195  0.18492957  0.91744099  1.0
  C  C136  1  0.73450506  0.11543790  0.91636129  1.0
  C  C137  1  0.68164959  0.08453288  0.89266234  1.0
  C  C138  1  0.67674088  0.01993672  0.89079730  1.0
  C  C139  1  0.72754306  0.98346536  0.90894624  1.0
  C  C140  1  0.78143984  0.01190336  0.93083218  1.0
  C  C141  1  0.78316080  0.07628451  0.93713615  1.0
  C  C142  1  0.79274989  0.21772112  0.89718298  1.0
  C  C143  1  0.79654491  0.28430697  0.90193017  1.0
  C  C144  1  0.85950945  0.31452518  0.89314334  1.0
  C  C145  1  0.84888819  0.18441372  0.87052802  1.0
  C  C146  1  0.72580457  0.75518930  0.67499972  1.0
  C  C147  1  0.77225475  0.74900536  0.63104672  1.0
  C  C148  1  0.75846884  0.75205152  0.56733151  1.0
  C  C149  1  0.69718267  0.75913403  0.54556607  1.0
  C  C150  1  0.65101543  0.76812326  0.59012695  1.0
  C  C151  1  0.66504639  0.76632523  0.65418681  1.0
  C  C152  1  0.71244970  0.72770917  0.43579561  1.0
  C  C153  1  0.72618414  0.72384805  0.26982278  1.0
  C  C154  1  0.76768637  0.69233231  0.23067412  1.0
  C  C155  1  0.77047614  0.70558503  0.16677470  1.0
  C  C156  1  0.73165772  0.75102526  0.14013748  1.0
  C  C157  1  0.69077040  0.78376454  0.17833572  1.0
  C  C158  1  0.68818161  0.76975877  0.24221844  1.0
  C  C159  1  0.73076993  0.75163481  0.07054935  1.0
  C  C160  1  0.72788409  0.91444101  0.90866895  1.0
  C  C161  1  0.72667756  0.75456384  0.74458821  1.0
  C  C162  1  0.89139839  0.75282665  0.90805789  1.0
  C  C163  1  0.72958763  0.59112175  0.90708387  1.0
  C  C164  1  0.56668974  0.75332010  0.90767927  1.0
  C  C165  1  0.74736910  0.00326144  0.15748441  1.0
  C  C166  1  0.71379578  0.04596045  0.12184957  1.0
  C  C167  1  0.64891232  0.04522196  0.12028559  1.0
  C  C168  1  0.61493954  0.00234143  0.15541067  1.0
  C  C169  1  0.64977672  0.95906536  0.19092552  1.0
  C  C170  1  0.71481884  0.95937332  0.19143758  1.0
  C  C171  1  0.54613768  0.00281011  0.15654204  1.0
  C  C172  1  0.51221303  0.94818936  0.16431528  1.0
  C  C173  1  0.44714119  0.94895463  0.16696647  1.0
  C  C174  1  0.41243889  0.00394094  0.15980156  1.0
  C  C175  1  0.34352174  0.00393734  0.15969079  1.0
  C  C176  1  0.30807252  0.05372816  0.18261618  1.0
  C  C177  1  0.24303621  0.05371190  0.18170854  1.0
  C  C178  1  0.21071882  0.00271250  0.15813038  1.0
  C  C179  1  0.24461780  0.95300183  0.13545542  1.0
  C  C180  1  0.30944796  0.95378671  0.13585816  1.0
  C  C181  1  0.44642798  0.05846558  0.15169251  1.0
  C  C182  1  0.51161189  0.05798532  0.15096001  1.0
  C  C183  1  0.97995444  0.77209811  0.15674194  1.0
  C  C184  1  0.94825608  0.73908612  0.20223243  1.0
  C  C185  1  0.95409747  0.67456027  0.20534116  1.0
  C  C186  1  0.98951115  0.63988453  0.16266603  1.0
  C  C187  1  0.01897063  0.67539180  0.11658325  1.0
  C  C188  1  0.01691417  0.74011167  0.11481242  1.0
  C  C189  1  0.99303024  0.57047802  0.16522373  1.0
  C  C190  1  0.94014173  0.53723743  0.18299983  1.0
  C  C191  1  0.93926615  0.47233293  0.18817038  1.0
  C  C192  1  0.98894195  0.43492957  0.16744099  1.0
  C  C193  1  0.98450506  0.36543790  0.16636129  1.0
  C  C194  1  0.93164959  0.33453288  0.14266234  1.0
  C  C195  1  0.92674088  0.26993672  0.14079730  1.0
  C  C196  1  0.97754306  0.23346536  0.15894624  1.0
  C  C197  1  0.03143984  0.26190336  0.18083218  1.0
  C  C198  1  0.03316080  0.32628451  0.18713615  1.0
  C  C199  1  0.04274989  0.46772112  0.14718298  1.0
  C  C200  1  0.04654491  0.53430697  0.15193017  1.0
  C  C201  1  0.10950945  0.56452518  0.14314334  1.0
  C  C202  1  0.09888819  0.43441372  0.12052802  1.0
  C  C203  1  0.97580457  0.00518930  0.92499972  1.0
  C  C204  1  0.02225475  0.99900536  0.88104672  1.0
  C  C205  1  0.00846884  0.00205152  0.81733151  1.0
  C  C206  1  0.94718267  0.00913403  0.79556607  1.0
  C  C207  1  0.90101543  0.01812326  0.84012695  1.0
  C  C208  1  0.91504639  0.01632523  0.90418681  1.0
  C  C209  1  0.96244970  0.97770917  0.68579561  1.0
  C  C210  1  0.97618414  0.97384805  0.51982278  1.0
  C  C211  1  0.01768637  0.94233231  0.48067412  1.0
  C  C212  1  0.02047614  0.95558503  0.41677470  1.0
  C  C213  1  0.98165772  0.00102526  0.39013748  1.0
  C  C214  1  0.94077040  0.03376454  0.42833572  1.0
  C  C215  1  0.93818161  0.01975877  0.49221844  1.0
  C  C216  1  0.98076993  0.00163481  0.32054935  1.0
  C  C217  1  0.97788409  0.16444101  0.15866895  1.0
  C  C218  1  0.97667756  0.00456384  0.99458821  1.0
  C  C219  1  0.14139839  0.00282665  0.15805789  1.0
  C  C220  1  0.97958763  0.84112175  0.15708387  1.0
  C  C221  1  0.81668974  0.00332010  0.15767927  1.0
  C  C222  1  0.99736910  0.25326144  0.40748441  1.0
  C  C223  1  0.96379578  0.29596045  0.37184957  1.0
  C  C224  1  0.89891232  0.29522196  0.37028559  1.0
  C  C225  1  0.86493954  0.25234143  0.40541067  1.0
  C  C226  1  0.89977672  0.20906536  0.44092552  1.0
  C  C227  1  0.96481884  0.20937332  0.44143758  1.0
  C  C228  1  0.79613768  0.25281011  0.40654204  1.0
  C  C229  1  0.76221303  0.19818936  0.41431528  1.0
  C  C230  1  0.69714119  0.19895463  0.41696647  1.0
  C  C231  1  0.66243889  0.25394094  0.40980156  1.0
  C  C232  1  0.59352174  0.25393734  0.40969079  1.0
  C  C233  1  0.55807252  0.30372816  0.43261618  1.0
  C  C234  1  0.49303621  0.30371190  0.43170854  1.0
  C  C235  1  0.46071882  0.25271250  0.40813038  1.0
  C  C236  1  0.49461780  0.20300183  0.38545542  1.0
  C  C237  1  0.55944796  0.20378671  0.38585816  1.0
  C  C238  1  0.69642798  0.30846558  0.40169251  1.0
  C  C239  1  0.76161189  0.30798532  0.40096001  1.0
  C  C240  1  0.22995444  0.02209811  0.40674194  1.0
  C  C241  1  0.19825608  0.98908612  0.45223243  1.0
  C  C242  1  0.20409747  0.92456027  0.45534116  1.0
  C  C243  1  0.23951115  0.88988453  0.41266603  1.0
  C  C244  1  0.26897063  0.92539180  0.36658325  1.0
  C  C245  1  0.26691417  0.99011167  0.36481242  1.0
  C  C246  1  0.24303024  0.82047802  0.41522373  1.0
  C  C247  1  0.19014173  0.78723743  0.43299983  1.0
  C  C248  1  0.18926615  0.72233293  0.43817038  1.0
  C  C249  1  0.23894195  0.68492957  0.41744099  1.0
  C  C250  1  0.23450506  0.61543790  0.41636129  1.0
  C  C251  1  0.18164959  0.58453288  0.39266234  1.0
  C  C252  1  0.17674088  0.51993672  0.39079730  1.0
  C  C253  1  0.22754306  0.48346536  0.40894624  1.0
  C  C254  1  0.28143984  0.51190336  0.43083218  1.0
  C  C255  1  0.28316080  0.57628451  0.43713615  1.0
  C  C256  1  0.29274989  0.71772112  0.39718298  1.0
  C  C257  1  0.29654491  0.78430697  0.40193017  1.0
  C  C258  1  0.35950945  0.81452518  0.39314334  1.0
  C  C259  1  0.34888819  0.68441372  0.37052802  1.0
  C  C260  1  0.22580457  0.25518930  0.17499972  1.0
  C  C261  1  0.27225475  0.24900536  0.13104672  1.0
  C  C262  1  0.25846884  0.25205152  0.06733151  1.0
  C  C263  1  0.19718267  0.25913403  0.04556607  1.0
  C  C264  1  0.15101543  0.26812326  0.09012695  1.0
  C  C265  1  0.16504639  0.26632523  0.15418681  1.0
  C  C266  1  0.21244970  0.22770917  0.93579561  1.0
  C  C267  1  0.22618414  0.22384805  0.76982278  1.0
  C  C268  1  0.26768637  0.19233231  0.73067412  1.0
  C  C269  1  0.27047614  0.20558503  0.66677470  1.0
  C  C270  1  0.23165772  0.25102526  0.64013748  1.0
  C  C271  1  0.19077040  0.28376454  0.67833572  1.0
  C  C272  1  0.18818161  0.26975877  0.74221844  1.0
  C  C273  1  0.23076993  0.25163481  0.57054935  1.0
  C  C274  1  0.22788409  0.41444101  0.40866895  1.0
  C  C275  1  0.22667756  0.25456384  0.24458821  1.0
  C  C276  1  0.39139839  0.25282665  0.40805789  1.0
  C  C277  1  0.22958763  0.09112175  0.40708387  1.0
  C  C278  1  0.06668974  0.25332010  0.40767927  1.0
  C  C279  1  0.24736910  0.50326144  0.65748441  1.0
  C  C280  1  0.21379578  0.54596045  0.62184957  1.0
  C  C281  1  0.14891232  0.54522196  0.62028559  1.0
  C  C282  1  0.11493954  0.50234143  0.65541067  1.0
  C  C283  1  0.14977672  0.45906536  0.69092552  1.0
  C  C284  1  0.21481884  0.45937332  0.69143758  1.0
  C  C285  1  0.04613768  0.50281011  0.65654204  1.0
  C  C286  1  0.01221303  0.44818936  0.66431528  1.0
  C  C287  1  0.94714119  0.44895463  0.66696647  1.0
  C  C288  1  0.91243889  0.50394094  0.65980156  1.0
  C  C289  1  0.84352174  0.50393734  0.65969079  1.0
  C  C290  1  0.80807252  0.55372816  0.68261618  1.0
  C  C291  1  0.74303621  0.55371190  0.68170854  1.0
  C  C292  1  0.71071882  0.50271250  0.65813038  1.0
  C  C293  1  0.74461780  0.45300183  0.63545542  1.0
  C  C294  1  0.80944796  0.45378671  0.63585816  1.0
  C  C295  1  0.94642798  0.55846558  0.65169251  1.0
  C  C296  1  0.01161189  0.55798532  0.65096001  1.0
  C  C297  1  0.47995444  0.27209811  0.65674194  1.0
  C  C298  1  0.44825608  0.23908612  0.70223243  1.0
  C  C299  1  0.45409747  0.17456027  0.70534116  1.0
  C  C300  1  0.48951115  0.13988453  0.66266603  1.0
  C  C301  1  0.51897063  0.17539180  0.61658325  1.0
  C  C302  1  0.51691417  0.24011167  0.61481242  1.0
  C  C303  1  0.49303024  0.07047802  0.66522373  1.0
  C  C304  1  0.44014173  0.03723743  0.68299983  1.0
  C  C305  1  0.43926615  0.97233293  0.68817038  1.0
  C  C306  1  0.48894195  0.93492957  0.66744099  1.0
  C  C307  1  0.48450506  0.86543790  0.66636129  1.0
  C  C308  1  0.43164959  0.83453288  0.64266234  1.0
  C  C309  1  0.42674088  0.76993672  0.64079730  1.0
  C  C310  1  0.47754306  0.73346536  0.65894624  1.0
  C  C311  1  0.53143984  0.76190336  0.68083218  1.0
  C  C312  1  0.53316080  0.82628451  0.68713615  1.0
  C  C313  1  0.54274989  0.96772112  0.64718298  1.0
  C  C314  1  0.54654491  0.03430697  0.65193017  1.0
  C  C315  1  0.60950945  0.06452518  0.64314334  1.0
  C  C316  1  0.59888819  0.93441372  0.62052802  1.0
  C  C317  1  0.47580457  0.50518930  0.42499972  1.0
  C  C318  1  0.52225475  0.49900536  0.38104672  1.0
  C  C319  1  0.50846884  0.50205152  0.31733151  1.0
  C  C320  1  0.44718267  0.50913403  0.29556607  1.0
  C  C321  1  0.40101543  0.51812326  0.34012695  1.0
  C  C322  1  0.41504639  0.51632523  0.40418681  1.0
  C  C323  1  0.46244970  0.47770917  0.18579561  1.0
  C  C324  1  0.47618414  0.47384805  0.01982278  1.0
  C  C325  1  0.51768637  0.44233231  0.98067412  1.0
  C  C326  1  0.52047614  0.45558503  0.91677470  1.0
  C  C327  1  0.48165772  0.50102526  0.89013748  1.0
  C  C328  1  0.44077040  0.53376454  0.92833572  1.0
  C  C329  1  0.43818161  0.51975877  0.99221844  1.0
  C  C330  1  0.48076993  0.50163481  0.82054935  1.0
  C  C331  1  0.47788409  0.66444101  0.65866895  1.0
  C  C332  1  0.47667756  0.50456384  0.49458821  1.0
  C  C333  1  0.64139839  0.50282665  0.65805789  1.0
  C  C334  1  0.47958763  0.34112175  0.65708387  1.0
  C  C335  1  0.31668974  0.50332010  0.65767927  1.0
  N  N336  1  0.67924010  0.75799342  0.48126083  1.0
  N  N337  1  0.68941807  0.73751353  0.37543316  1.0
  N  N338  1  0.71905749  0.69959895  0.33079686  1.0
  N  N339  1  0.92924010  0.00799342  0.73126083  1.0
  N  N340  1  0.93941807  0.98751353  0.62543316  1.0
  N  N341  1  0.96905749  0.94959895  0.58079686  1.0
  N  N342  1  0.17924010  0.25799342  0.98126083  1.0
  N  N343  1  0.18941807  0.23751353  0.87543316  1.0
  N  N344  1  0.21905749  0.19959895  0.83079686  1.0
  N  N345  1  0.42924010  0.50799342  0.23126083  1.0
  N  N346  1  0.43941807  0.48751353  0.12543316  1.0
  N  N347  1  0.46905749  0.44959895  0.08079686  1.0
  Cl  Cl348  1  0.62448576  0.19288651  0.97581458  1.0
  Cl  Cl349  1  0.87448576  0.44288651  0.22581458  1.0
  Cl  Cl350  1  0.12448576  0.69288651  0.47581458  1.0
  Cl  Cl351  1  0.37448576  0.94288651  0.72581458  1.0
  O  O352  1  0.75850810  0.69455113  0.44501538  1.0
  O  O353  1  0.72872799  0.75309657  0.90788643  1.0
  O  O354  1  0.76547682  0.71615128  0.76779084  1.0
  O  O355  1  0.58863407  0.79181197  0.86947764  1.0
  O  O356  1  0.69164468  0.61400222  0.94560934  1.0
  O  O357  1  0.68846522  0.79255646  0.76808820  1.0
  O  O358  1  0.76728568  0.61456597  0.86878826  1.0
  O  O359  1  0.59000397  0.71484237  0.94600156  1.0
  O  O360  1  0.69238350  0.71376286  0.04760369  1.0
  O  O361  1  0.86841598  0.79065949  0.94667311  1.0
  O  O362  1  0.76858483  0.78991496  0.04806256  1.0
  O  O363  1  0.86785636  0.71507181  0.86939296  1.0
  O  O364  1  0.68920475  0.89231778  0.87008239  1.0
  O  O365  1  0.76677599  0.89149951  0.94706516  1.0
  O  O366  1  0.00850810  0.94455113  0.69501538  1.0
  O  O367  1  0.97872799  0.00309657  0.15788643  1.0
  O  O368  1  0.01547682  0.96615128  0.01779084  1.0
  O  O369  1  0.83863407  0.04181197  0.11947764  1.0
  O  O370  1  0.94164468  0.86400222  0.19560934  1.0
  O  O371  1  0.93846522  0.04255646  0.01808820  1.0
  O  O372  1  0.01728568  0.86456597  0.11878826  1.0
  O  O373  1  0.84000397  0.96484237  0.19600156  1.0
  O  O374  1  0.94238350  0.96376286  0.29760369  1.0
  O  O375  1  0.11841598  0.04065949  0.19667311  1.0
  O  O376  1  0.01858483  0.03991496  0.29806256  1.0
  O  O377  1  0.11785636  0.96507181  0.11939296  1.0
  O  O378  1  0.93920475  0.14231778  0.12008239  1.0
  O  O379  1  0.01677599  0.14149951  0.19706516  1.0
  O  O380  1  0.25850810  0.19455113  0.94501538  1.0
  O  O381  1  0.22872799  0.25309657  0.40788643  1.0
  O  O382  1  0.26547682  0.21615128  0.26779084  1.0
  O  O383  1  0.08863407  0.29181197  0.36947764  1.0
  O  O384  1  0.19164468  0.11400222  0.44560934  1.0
  O  O385  1  0.18846522  0.29255646  0.26808820  1.0
  O  O386  1  0.26728568  0.11456597  0.36878826  1.0
  O  O387  1  0.09000397  0.21484237  0.44600156  1.0
  O  O388  1  0.19238350  0.21376286  0.54760369  1.0
  O  O389  1  0.36841598  0.29065949  0.44667311  1.0
  O  O390  1  0.26858483  0.28991496  0.54806256  1.0
  O  O391  1  0.36785636  0.21507181  0.36939296  1.0
  O  O392  1  0.18920475  0.39231778  0.37008239  1.0
  O  O393  1  0.26677599  0.39149951  0.44706516  1.0
  O  O394  1  0.50850810  0.44455113  0.19501538  1.0
  O  O395  1  0.47872799  0.50309657  0.65788643  1.0
  O  O396  1  0.51547682  0.46615128  0.51779084  1.0
  O  O397  1  0.33863407  0.54181197  0.61947764  1.0
  O  O398  1  0.44164468  0.36400222  0.69560934  1.0
  O  O399  1  0.43846522  0.54255646  0.51808820  1.0
  O  O400  1  0.51728568  0.36456597  0.61878826  1.0
  O  O401  1  0.34000397  0.46484237  0.69600156  1.0
  O  O402  1  0.44238350  0.46376286  0.79760369  1.0
  O  O403  1  0.61841598  0.54065949  0.69667311  1.0
  O  O404  1  0.51858483  0.53991496  0.79806256  1.0
  O  O405  1  0.61785636  0.46507181  0.61939296  1.0
  O  O406  1  0.43920475  0.64231778  0.62008239  1.0
  O  O407  1  0.51677599  0.64149951  0.69706516  1.0
  F  F408  1  0.49438873  0.66722406  0.97727031  1.0
  F  F409  1  0.08864379  0.65448475  0.86148168  1.0
  F  F410  1  0.96550300  0.65298638  0.86259262  1.0
  F  F411  1  0.08600695  0.85361656  0.95708866  1.0
  F  F412  1  0.36964345  0.83734355  0.83393864  1.0
  F  F413  1  0.49345049  0.83972982  0.83923561  1.0
  F  F414  1  0.79940520  0.39817248  0.81980435  1.0
  F  F415  1  0.63323309  0.11673689  0.86881591  1.0
  F  F416  1  0.83491576  0.10008336  0.96287536  1.0
  F  F417  1  0.67311310  0.39615345  0.00118124  1.0
  F  F418  1  0.83147038  0.73970760  0.64956917  1.0
  F  F419  1  0.80673007  0.75164812  0.52839648  1.0
  F  F420  1  0.59183723  0.77679721  0.57118564  1.0
  F  F421  1  0.61859884  0.77364919  0.69465999  1.0
  F  F422  1  0.64614371  0.80058423  0.27624292  1.0
  F  F423  1  0.74438873  0.91722406  0.22727031  1.0
  F  F424  1  0.33864379  0.90448475  0.11148168  1.0
  F  F425  1  0.21550300  0.90298638  0.11259262  1.0
  F  F426  1  0.33600695  0.10361656  0.20708866  1.0
  F  F427  1  0.61964345  0.08734355  0.08393864  1.0
  F  F428  1  0.74345049  0.08972982  0.08923561  1.0
  F  F429  1  0.04940520  0.64817248  0.06980435  1.0
  F  F430  1  0.88323309  0.36673689  0.11881591  1.0
  F  F431  1  0.08491576  0.35008336  0.21287536  1.0
  F  F432  1  0.92311310  0.64615345  0.25118124  1.0
  F  F433  1  0.08147038  0.98970760  0.89956917  1.0
  F  F434  1  0.05673007  0.00164812  0.77839648  1.0
  F  F435  1  0.84183723  0.02679721  0.82118564  1.0
  F  F436  1  0.86859884  0.02364919  0.94465999  1.0
  F  F437  1  0.89614371  0.05058423  0.52624292  1.0
  F  F438  1  0.99438873  0.16722406  0.47727031  1.0
  F  F439  1  0.58864379  0.15448475  0.36148168  1.0
  F  F440  1  0.46550300  0.15298638  0.36259262  1.0
  F  F441  1  0.58600695  0.35361656  0.45708866  1.0
  F  F442  1  0.86964345  0.33734355  0.33393864  1.0
  F  F443  1  0.99345049  0.33972982  0.33923561  1.0
  F  F444  1  0.29940520  0.89817248  0.31980435  1.0
  F  F445  1  0.13323309  0.61673689  0.36881591  1.0
  F  F446  1  0.33491576  0.60008336  0.46287536  1.0
  F  F447  1  0.17311310  0.89615345  0.50118124  1.0
  F  F448  1  0.33147038  0.23970760  0.14956917  1.0
  F  F449  1  0.30673007  0.25164812  0.02839648  1.0
  F  F450  1  0.09183723  0.27679721  0.07118564  1.0
  F  F451  1  0.11859884  0.27364919  0.19465999  1.0
  F  F452  1  0.14614371  0.30058423  0.77624292  1.0
  F  F453  1  0.24438873  0.41722406  0.72727031  1.0
  F  F454  1  0.83864379  0.40448475  0.61148168  1.0
  F  F455  1  0.71550300  0.40298638  0.61259262  1.0
  F  F456  1  0.83600695  0.60361656  0.70708866  1.0
  F  F457  1  0.11964345  0.58734355  0.58393864  1.0
  F  F458  1  0.24345049  0.58972982  0.58923561  1.0
  F  F459  1  0.54940520  0.14817248  0.56980435  1.0
  F  F460  1  0.38323309  0.86673689  0.61881591  1.0
  F  F461  1  0.58491576  0.85008336  0.71287536  1.0
  F  F462  1  0.42311310  0.14615345  0.75118124  1.0
  F  F463  1  0.58147038  0.48970760  0.39956917  1.0
  F  F464  1  0.55673007  0.50164812  0.27839648  1.0
  F  F465  1  0.34183723  0.52679721  0.32118564  1.0
  F  F466  1  0.36859884  0.52364919  0.44465999  1.0
  F  F467  1  0.39614371  0.55058423  0.02624292  1.0
