# generated using pymatgen
data_Zn2H25C60N4Cl6O9F11
_symmetry_space_group_name_H-M   'P 1'
_cell_length_a   18.57445584
_cell_length_b   19.48269116
_cell_length_c   19.40510144
_cell_angle_alpha   85.11821764
_cell_angle_beta   89.83684733
_cell_angle_gamma   89.96842883
_symmetry_Int_Tables_number   1
_chemical_formula_structural   Zn2H25C60N4Cl6O9F11
_chemical_formula_sum   'Zn6 H75 C180 N12 Cl18 O27 F33'
_cell_volume   6996.82275344
_cell_formula_units_Z   3
loop_
 _symmetry_equiv_pos_site_id
 _symmetry_equiv_pos_as_xyz
  1  'x, y, z'
loop_
 _atom_site_type_symbol
 _atom_site_label
 _atom_site_symmetry_multiplicity
 _atom_site_fract_x
 _atom_site_fract_y
 _atom_site_fract_z
 _atom_site_occupancy
  Zn  Zn0  1  0.78810622  0.75414579  0.23680548  1.0
  Zn  Zn1  1  0.94587104  0.75399447  0.23679362  1.0
  Zn  Zn2  1  0.12110622  0.08714579  0.56980548  1.0
  Zn  Zn3  1  0.27887104  0.08699447  0.56979362  1.0
  Zn  Zn4  1  0.45410622  0.42014579  0.90280548  1.0
  Zn  Zn5  1  0.61187104  0.41999447  0.90279362  1.0
  H  H6  1  0.67178653  0.80526244  0.13932775  1.0
  H  H7  1  0.05897337  0.64922595  0.22740179  1.0
  H  H8  1  0.30054654  0.85241518  0.18831557  1.0
  H  H9  1  0.33020189  0.60435548  0.31721265  1.0
  H  H10  1  0.75604540  0.41728145  0.28157153  1.0
  H  H11  1  0.74805726  0.32168751  0.21789400  1.0
  H  H12  1  0.76485293  0.95764895  0.28976266  1.0
  H  H13  1  0.97047167  0.97470923  0.18550644  1.0
  H  H14  1  0.97358030  0.31616406  0.26070574  1.0
  H  H15  1  0.99664525  0.13201700  0.28427659  1.0
  H  H16  1  0.03219619  0.19624425  0.22221178  1.0
  H  H17  1  0.02237008  0.21168737  0.31050650  1.0
  H  H18  1  0.68636458  0.23206414  0.19040197  1.0
  H  H19  1  0.72549966  0.15289168  0.17489354  1.0
  H  H20  1  0.69733273  0.17101707  0.26046045  1.0
  H  H21  1  0.83965637  0.86221879  0.89193496  1.0
  H  H22  1  0.89282812  0.64696016  0.03385635  1.0
  H  H23  1  0.77961276  0.83446848  0.66274551  1.0
  H  H24  1  0.97286303  0.73742896  0.58150168  1.0
  H  H25  1  0.97985260  0.73468625  0.45796369  1.0
  H  H26  1  0.71141619  0.80969251  0.83431985  1.0
  H  H27  1  0.76851143  0.88308687  0.82378889  1.0
  H  H28  1  0.66043101  0.84617609  0.71712142  1.0
  H  H29  1  0.65315778  0.91049939  0.77607851  1.0
  H  H30  1  0.71986950  0.91820957  0.71121449  1.0
  H  H31  1  0.00478653  0.13826244  0.47232775  1.0
  H  H32  1  0.39197337  0.98222595  0.56040179  1.0
  H  H33  1  0.63354654  0.18541518  0.52131557  1.0
  H  H34  1  0.66320189  0.93735548  0.65021265  1.0
  H  H35  1  0.08904540  0.75028145  0.61457153  1.0
  H  H36  1  0.08105726  0.65468751  0.55089400  1.0
  H  H37  1  0.09785293  0.29064895  0.62276266  1.0
  H  H38  1  0.30347167  0.30770923  0.51850644  1.0
  H  H39  1  0.30658030  0.64916406  0.59370574  1.0
  H  H40  1  0.32964525  0.46501700  0.61727659  1.0
  H  H41  1  0.36519619  0.52924425  0.55521178  1.0
  H  H42  1  0.35537008  0.54468737  0.64350650  1.0
  H  H43  1  0.01936458  0.56506414  0.52340197  1.0
  H  H44  1  0.05849966  0.48589168  0.50789354  1.0
  H  H45  1  0.03033273  0.50401707  0.59346045  1.0
  H  H46  1  0.17265637  0.19521879  0.22493496  1.0
  H  H47  1  0.22582812  0.97996016  0.36685635  1.0
  H  H48  1  0.11261276  0.16746848  0.99574551  1.0
  H  H49  1  0.30586303  0.07042896  0.91450168  1.0
  H  H50  1  0.31285260  0.06768625  0.79096369  1.0
  H  H51  1  0.04441619  0.14269251  0.16731985  1.0
  H  H52  1  0.10151143  0.21608687  0.15678889  1.0
  H  H53  1  0.99343101  0.17917609  0.05012142  1.0
  H  H54  1  0.98615778  0.24349939  0.10907851  1.0
  H  H55  1  0.05286950  0.25120957  0.04421449  1.0
  H  H56  1  0.33778653  0.47126244  0.80532775  1.0
  H  H57  1  0.72497337  0.31522595  0.89340179  1.0
  H  H58  1  0.96654654  0.51841518  0.85431557  1.0
  H  H59  1  0.99620189  0.27035548  0.98321265  1.0
  H  H60  1  0.42204540  0.08328145  0.94757153  1.0
  H  H61  1  0.41405726  0.98768751  0.88389400  1.0
  H  H62  1  0.43085293  0.62364895  0.95576266  1.0
  H  H63  1  0.63647167  0.64070923  0.85150644  1.0
  H  H64  1  0.63958030  0.98216406  0.92670574  1.0
  H  H65  1  0.66264525  0.79801700  0.95027659  1.0
  H  H66  1  0.69819619  0.86224425  0.88821178  1.0
  H  H67  1  0.68837008  0.87768737  0.97650650  1.0
  H  H68  1  0.35236458  0.89806414  0.85640197  1.0
  H  H69  1  0.39149966  0.81889168  0.84089354  1.0
  H  H70  1  0.36333273  0.83701707  0.92646045  1.0
  H  H71  1  0.50565637  0.52821879  0.55793496  1.0
  H  H72  1  0.55882812  0.31296016  0.69985635  1.0
  H  H73  1  0.44561276  0.50046848  0.32874551  1.0
  H  H74  1  0.63886303  0.40342896  0.24750168  1.0
  H  H75  1  0.64585260  0.40068625  0.12396369  1.0
  H  H76  1  0.37741619  0.47569251  0.50031985  1.0
  H  H77  1  0.43451143  0.54908687  0.48978889  1.0
  H  H78  1  0.32643101  0.51217609  0.38312142  1.0
  H  H79  1  0.31915778  0.57649939  0.44207851  1.0
  H  H80  1  0.38586950  0.58420957  0.37721449  1.0
  C  C81  1  0.56635357  0.77912327  0.18021857  1.0
  C  C82  1  0.52618595  0.75236384  0.23773254  1.0
  C  C83  1  0.56723671  0.72686581  0.29500569  1.0
  C  C84  1  0.64217894  0.72652095  0.29149192  1.0
  C  C85  1  0.64118848  0.78120367  0.18269172  1.0
  C  C86  1  0.44569111  0.75116328  0.23784682  1.0
  C  C87  1  0.40544219  0.69227452  0.26192979  1.0
  C  C88  1  0.32938956  0.69364774  0.26651750  1.0
  C  C89  1  0.28835122  0.74976094  0.23864129  1.0
  C  C90  1  0.20773885  0.75036221  0.23760441  1.0
  C  C91  1  0.16582152  0.69169447  0.22995142  1.0
  C  C92  1  0.09103178  0.69532201  0.23135955  1.0
  C  C93  1  0.09354733  0.81093024  0.24218383  1.0
  C  C94  1  0.16843378  0.81142799  0.24357213  1.0
  C  C95  1  0.32829839  0.80695262  0.21158617  1.0
  C  C96  1  0.40395514  0.80935082  0.21493246  1.0
  C  C97  1  0.86688923  0.55240216  0.23748510  1.0
  C  C98  1  0.92462890  0.51652058  0.21242669  1.0
  C  C99  1  0.92234930  0.44512940  0.21128173  1.0
  C  C100  1  0.86254815  0.40614984  0.23642108  1.0
  C  C101  1  0.80416459  0.44336955  0.26082457  1.0
  C  C102  1  0.80625555  0.51512930  0.26083485  1.0
  C  C103  1  0.86112764  0.33001722  0.23801611  1.0
  C  C104  1  0.79819701  0.29339599  0.22728174  1.0
  C  C105  1  0.79651293  0.22057471  0.22616263  1.0
  C  C106  1  0.86026429  0.18014870  0.23827745  1.0
  C  C107  1  0.86106804  0.10304648  0.23608282  1.0
  C  C108  1  0.80842496  0.05932677  0.26821504  1.0
  C  C109  1  0.80909653  0.98772116  0.26586403  1.0
  C  C110  1  0.86709491  0.95573841  0.23611431  1.0
  C  C111  1  0.92176349  0.99632216  0.20586794  1.0
  C  C112  1  0.91628386  0.06834050  0.20312479  1.0
  C  C113  1  0.92384162  0.21759131  0.25229543  1.0
  C  C114  1  0.92294495  0.29045502  0.25085708  1.0
  C  C115  1  0.99747446  0.18691223  0.26786068  1.0
  C  C116  1  0.72285862  0.19167181  0.21228865  1.0
  C  C117  1  0.86756314  0.75495007  0.03430817  1.0
  C  C118  1  0.84888619  0.81409181  0.99336866  1.0
  C  C119  1  0.84635184  0.81288010  0.92141962  1.0
  C  C120  1  0.85386137  0.75218795  0.88716034  1.0
  C  C121  1  0.86993960  0.69195568  0.93038025  1.0
  C  C122  1  0.87814710  0.69388220  0.00230879  1.0
  C  C123  1  0.84791001  0.75505586  0.81013022  1.0
  C  C124  1  0.80183245  0.79799515  0.76822652  1.0
  C  C125  1  0.81020904  0.79739553  0.69599788  1.0
  C  C126  1  0.85439812  0.75028714  0.66449542  1.0
  C  C127  1  0.85599684  0.74925233  0.58730926  1.0
  C  C128  1  0.92232267  0.74266532  0.55312275  1.0
  C  C129  1  0.92719906  0.74246903  0.48122815  1.0
  C  C130  1  0.86642101  0.75319052  0.43929123  1.0
  C  C131  1  0.79969189  0.76239170  0.47079611  1.0
  C  C132  1  0.79404664  0.75714154  0.54407818  1.0
  C  C133  1  0.89518259  0.70802766  0.71127431  1.0
  C  C134  1  0.94200526  0.65444036  0.69097003  1.0
  C  C135  1  0.74347681  0.84240916  0.79702195  1.0
  C  C136  1  0.69126066  0.88106925  0.74696765  1.0
  C  C137  1  0.86663389  0.75078722  0.36275007  1.0
  C  C138  1  0.86734509  0.75735390  0.11084909  1.0
  C  C139  1  0.86706008  0.87951122  0.23362561  1.0
  C  C140  1  0.86691884  0.62862908  0.23997359  1.0
  C  C141  1  0.89935357  0.11212327  0.51321857  1.0
  C  C142  1  0.85918595  0.08536384  0.57073254  1.0
  C  C143  1  0.90023671  0.05986581  0.62800569  1.0
  C  C144  1  0.97517894  0.05952095  0.62449192  1.0
  C  C145  1  0.97418848  0.11420367  0.51569172  1.0
  C  C146  1  0.77869111  0.08416328  0.57084682  1.0
  C  C147  1  0.73844219  0.02527452  0.59492979  1.0
  C  C148  1  0.66238956  0.02664774  0.59951750  1.0
  C  C149  1  0.62135122  0.08276094  0.57164129  1.0
  C  C150  1  0.54073885  0.08336221  0.57060441  1.0
  C  C151  1  0.49882152  0.02469447  0.56295142  1.0
  C  C152  1  0.42403178  0.02832201  0.56435955  1.0
  C  C153  1  0.42654733  0.14393024  0.57518383  1.0
  C  C154  1  0.50143378  0.14442799  0.57657213  1.0
  C  C155  1  0.66129839  0.13995262  0.54458617  1.0
  C  C156  1  0.73695514  0.14235082  0.54793246  1.0
  C  C157  1  0.19988923  0.88540216  0.57048510  1.0
  C  C158  1  0.25762890  0.84952058  0.54542669  1.0
  C  C159  1  0.25534930  0.77812940  0.54428173  1.0
  C  C160  1  0.19554815  0.73914984  0.56942108  1.0
  C  C161  1  0.13716459  0.77636955  0.59382457  1.0
  C  C162  1  0.13925555  0.84812930  0.59383485  1.0
  C  C163  1  0.19412764  0.66301722  0.57101611  1.0
  C  C164  1  0.13119701  0.62639599  0.56028174  1.0
  C  C165  1  0.12951293  0.55357471  0.55916263  1.0
  C  C166  1  0.19326429  0.51314870  0.57127745  1.0
  C  C167  1  0.19406804  0.43604648  0.56908282  1.0
  C  C168  1  0.14142496  0.39232677  0.60121504  1.0
  C  C169  1  0.14209653  0.32072116  0.59886403  1.0
  C  C170  1  0.20009491  0.28873841  0.56911431  1.0
  C  C171  1  0.25476349  0.32932216  0.53886794  1.0
  C  C172  1  0.24928386  0.40134050  0.53612479  1.0
  C  C173  1  0.25684162  0.55059131  0.58529543  1.0
  C  C174  1  0.25594495  0.62345502  0.58385708  1.0
  C  C175  1  0.33047446  0.51991223  0.60086068  1.0
  C  C176  1  0.05585862  0.52467181  0.54528865  1.0
  C  C177  1  0.20056314  0.08795007  0.36730817  1.0
  C  C178  1  0.18188619  0.14709181  0.32636866  1.0
  C  C179  1  0.17935184  0.14588010  0.25441962  1.0
  C  C180  1  0.18686137  0.08518795  0.22016034  1.0
  C  C181  1  0.20293960  0.02495568  0.26338025  1.0
  C  C182  1  0.21114710  0.02688220  0.33530879  1.0
  C  C183  1  0.18091001  0.08805586  0.14313022  1.0
  C  C184  1  0.13483245  0.13099515  0.10122652  1.0
  C  C185  1  0.14320904  0.13039553  0.02899788  1.0
  C  C186  1  0.18739812  0.08328714  0.99749542  1.0
  C  C187  1  0.18899684  0.08225233  0.92030926  1.0
  C  C188  1  0.25532267  0.07566532  0.88612275  1.0
  C  C189  1  0.26019906  0.07546903  0.81422815  1.0
  C  C190  1  0.19942101  0.08619052  0.77229123  1.0
  C  C191  1  0.13269189  0.09539170  0.80379611  1.0
  C  C192  1  0.12704664  0.09014154  0.87707818  1.0
  C  C193  1  0.22818259  0.04102766  0.04427431  1.0
  C  C194  1  0.27500526  0.98744036  0.02397003  1.0
  C  C195  1  0.07647681  0.17540916  0.13002195  1.0
  C  C196  1  0.02426066  0.21406925  0.07996765  1.0
  C  C197  1  0.19963389  0.08378722  0.69575007  1.0
  C  C198  1  0.20034509  0.09035390  0.44384909  1.0
  C  C199  1  0.20006008  0.21251122  0.56662561  1.0
  C  C200  1  0.19991884  0.96162908  0.57297359  1.0
  C  C201  1  0.23235357  0.44512327  0.84621857  1.0
  C  C202  1  0.19218595  0.41836384  0.90373254  1.0
  C  C203  1  0.23323671  0.39286581  0.96100569  1.0
  C  C204  1  0.30817894  0.39252095  0.95749192  1.0
  C  C205  1  0.30718848  0.44720367  0.84869172  1.0
  C  C206  1  0.11169111  0.41716328  0.90384682  1.0
  C  C207  1  0.07144219  0.35827452  0.92792979  1.0
  C  C208  1  0.99538956  0.35964774  0.93251750  1.0
  C  C209  1  0.95435122  0.41576094  0.90464129  1.0
  C  C210  1  0.87373885  0.41636221  0.90360441  1.0
  C  C211  1  0.83182152  0.35769447  0.89595142  1.0
  C  C212  1  0.75703178  0.36132201  0.89735955  1.0
  C  C213  1  0.75954733  0.47693024  0.90818383  1.0
  C  C214  1  0.83443378  0.47742799  0.90957213  1.0
  C  C215  1  0.99429839  0.47295262  0.87758617  1.0
  C  C216  1  0.06995514  0.47535082  0.88093246  1.0
  C  C217  1  0.53288923  0.21840216  0.90348510  1.0
  C  C218  1  0.59062890  0.18252058  0.87842669  1.0
  C  C219  1  0.58834930  0.11112940  0.87728173  1.0
  C  C220  1  0.52854815  0.07214984  0.90242108  1.0
  C  C221  1  0.47016459  0.10936955  0.92682457  1.0
  C  C222  1  0.47225555  0.18112930  0.92683485  1.0
  C  C223  1  0.52712764  0.99601722  0.90401611  1.0
  C  C224  1  0.46419701  0.95939599  0.89328174  1.0
  C  C225  1  0.46251293  0.88657471  0.89216263  1.0
  C  C226  1  0.52626429  0.84614870  0.90427745  1.0
  C  C227  1  0.52706804  0.76904648  0.90208282  1.0
  C  C228  1  0.47442496  0.72532677  0.93421504  1.0
  C  C229  1  0.47509653  0.65372116  0.93186403  1.0
  C  C230  1  0.53309491  0.62173841  0.90211431  1.0
  C  C231  1  0.58776349  0.66232216  0.87186794  1.0
  C  C232  1  0.58228386  0.73434050  0.86912479  1.0
  C  C233  1  0.58984162  0.88359131  0.91829543  1.0
  C  C234  1  0.58894495  0.95645502  0.91685708  1.0
  C  C235  1  0.66347446  0.85291223  0.93386068  1.0
  C  C236  1  0.38885862  0.85767181  0.87828865  1.0
  C  C237  1  0.53356314  0.42095007  0.70030817  1.0
  C  C238  1  0.51488619  0.48009181  0.65936866  1.0
  C  C239  1  0.51235184  0.47888010  0.58741962  1.0
  C  C240  1  0.51986137  0.41818795  0.55316034  1.0
  C  C241  1  0.53593960  0.35795568  0.59638025  1.0
  C  C242  1  0.54414710  0.35988220  0.66830879  1.0
  C  C243  1  0.51391001  0.42105586  0.47613022  1.0
  C  C244  1  0.46783245  0.46399515  0.43422652  1.0
  C  C245  1  0.47620904  0.46339553  0.36199788  1.0
  C  C246  1  0.52039812  0.41628714  0.33049542  1.0
  C  C247  1  0.52199684  0.41525233  0.25330926  1.0
  C  C248  1  0.58832267  0.40866532  0.21912275  1.0
  C  C249  1  0.59319906  0.40846903  0.14722815  1.0
  C  C250  1  0.53242101  0.41919052  0.10529123  1.0
  C  C251  1  0.46569189  0.42839170  0.13679611  1.0
  C  C252  1  0.46004664  0.42314154  0.21007818  1.0
  C  C253  1  0.56118259  0.37402766  0.37727431  1.0
  C  C254  1  0.60800526  0.32044036  0.35697003  1.0
  C  C255  1  0.40947681  0.50840916  0.46302195  1.0
  C  C256  1  0.35726066  0.54706925  0.41296765  1.0
  C  C257  1  0.53263389  0.41678722  0.02875007  1.0
  C  C258  1  0.53334509  0.42335390  0.77684909  1.0
  C  C259  1  0.53306008  0.54551122  0.89962561  1.0
  C  C260  1  0.53291884  0.29462908  0.90597359  1.0
  N  N261  1  0.68043624  0.75424960  0.23680802  1.0
  N  N262  1  0.05354104  0.75389629  0.23678542  1.0
  N  N263  1  0.89474676  0.71267609  0.78095517  1.0
  N  N264  1  0.98087082  0.61265124  0.67233514  1.0
  N  N265  1  0.01343624  0.08724960  0.56980802  1.0
  N  N266  1  0.38654104  0.08689629  0.56978542  1.0
  N  N267  1  0.22774676  0.04567609  0.11395517  1.0
  N  N268  1  0.31387082  0.94565124  0.00533514  1.0
  N  N269  1  0.34643624  0.42024960  0.90280802  1.0
  N  N270  1  0.71954104  0.41989629  0.90278542  1.0
  N  N271  1  0.56074676  0.37867609  0.44695517  1.0
  N  N272  1  0.64687082  0.27865124  0.33833514  1.0
  Cl  Cl273  1  0.44583828  0.61244047  0.28389128  1.0
  Cl  Cl274  1  0.44106766  0.89021939  0.19287794  1.0
  Cl  Cl275  1  0.88000578  0.61111775  0.90040899  1.0
  Cl  Cl276  1  0.70760633  0.75594232  0.58039606  1.0
  Cl  Cl277  1  0.72397626  0.78338072  0.42051691  1.0
  Cl  Cl278  1  0.82623332  0.89101379  0.02616678  1.0
  Cl  Cl279  1  0.77883828  0.94544047  0.61689128  1.0
  Cl  Cl280  1  0.77406766  0.22321939  0.52587794  1.0
  Cl  Cl281  1  0.21300578  0.94411775  0.23340899  1.0
  Cl  Cl282  1  0.04060633  0.08894232  0.91339606  1.0
  Cl  Cl283  1  0.05697626  0.11638072  0.75351691  1.0
  Cl  Cl284  1  0.15923332  0.22401379  0.35916678  1.0
  Cl  Cl285  1  0.11183828  0.27844047  0.94989128  1.0
  Cl  Cl286  1  0.10706766  0.55621939  0.85887794  1.0
  Cl  Cl287  1  0.54600578  0.27711775  0.56640899  1.0
  Cl  Cl288  1  0.37360633  0.42194232  0.24639606  1.0
  Cl  Cl289  1  0.38997626  0.44938072  0.08651691  1.0
  Cl  Cl290  1  0.49223332  0.55701379  0.69216678  1.0
  O  O291  1  0.29446340  0.63936181  0.30273404  1.0
  O  O292  1  0.92714283  0.75810022  0.13653243  1.0
  O  O293  1  0.92657600  0.74992553  0.33705753  1.0
  O  O294  1  0.92691934  0.85387178  0.23278861  1.0
  O  O295  1  0.92679943  0.65415397  0.24080130  1.0
  O  O296  1  0.80717777  0.85398629  0.23279780  1.0
  O  O297  1  0.80683442  0.75004086  0.33706668  1.0
  O  O298  1  0.80740126  0.75821552  0.13654075  1.0
  O  O299  1  0.80705786  0.65426927  0.24080967  1.0
  O  O300  1  0.62746340  0.97236181  0.63573404  1.0
  O  O301  1  0.26014283  0.09110022  0.46953243  1.0
  O  O302  1  0.25957600  0.08292553  0.67005753  1.0
  O  O303  1  0.25991934  0.18687178  0.56578861  1.0
  O  O304  1  0.25979943  0.98715397  0.57380130  1.0
  O  O305  1  0.14017777  0.18698629  0.56579780  1.0
  O  O306  1  0.13983442  0.08304086  0.67006668  1.0
  O  O307  1  0.14040126  0.09121552  0.46954075  1.0
  O  O308  1  0.14005786  0.98726927  0.57380967  1.0
  O  O309  1  0.96046340  0.30536181  0.96873404  1.0
  O  O310  1  0.59314283  0.42410022  0.80253243  1.0
  O  O311  1  0.59257600  0.41592553  0.00305753  1.0
  O  O312  1  0.59291934  0.51987178  0.89878861  1.0
  O  O313  1  0.59279943  0.32015397  0.90680130  1.0
  O  O314  1  0.47317777  0.51998629  0.89879780  1.0
  O  O315  1  0.47283442  0.41604086  0.00306668  1.0
  O  O316  1  0.47340126  0.42421552  0.80254075  1.0
  O  O317  1  0.47305786  0.32026927  0.90680967  1.0
  F  F318  1  0.53398325  0.80290692  0.12129799  1.0
  F  F319  1  0.67945605  0.69624587  0.34486549  1.0
  F  F320  1  0.53525771  0.70235289  0.35417421  1.0
  F  F321  1  0.19548906  0.63093898  0.21843388  1.0
  F  F322  1  0.20190568  0.87156812  0.25011467  1.0
  F  F323  1  0.05811527  0.87067737  0.24472497  1.0
  F  F324  1  0.74884543  0.54663668  0.28555214  1.0
  F  F325  1  0.96862322  0.10380837  0.16810540  1.0
  F  F326  1  0.75527121  0.08449666  0.30542055  1.0
  F  F327  1  0.97979184  0.41417155  0.18547622  1.0
  F  F328  1  0.98440802  0.55025887  0.19017394  1.0
  F  F329  1  0.86698325  0.13590692  0.45429799  1.0
  F  F330  1  0.01245605  0.02924587  0.67786549  1.0
  F  F331  1  0.86825771  0.03535289  0.68717421  1.0
  F  F332  1  0.52848906  0.96393898  0.55143388  1.0
  F  F333  1  0.53490568  0.20456812  0.58311467  1.0
  F  F334  1  0.39111527  0.20367737  0.57772497  1.0
  F  F335  1  0.08184543  0.87963668  0.61855214  1.0
  F  F336  1  0.30162322  0.43680837  0.50110540  1.0
  F  F337  1  0.08827121  0.41749666  0.63842055  1.0
  F  F338  1  0.31279184  0.74717155  0.51847622  1.0
  F  F339  1  0.31740802  0.88325887  0.52317394  1.0
  F  F340  1  0.19998325  0.46890692  0.78729799  1.0
  F  F341  1  0.34545605  0.36224587  0.01086549  1.0
  F  F342  1  0.20125771  0.36835289  0.02017421  1.0
  F  F343  1  0.86148906  0.29693898  0.88443388  1.0
  F  F344  1  0.86790568  0.53756812  0.91611467  1.0
  F  F345  1  0.72411527  0.53667737  0.91072497  1.0
  F  F346  1  0.41484543  0.21263668  0.95155214  1.0
  F  F347  1  0.63462322  0.76980837  0.83410540  1.0
  F  F348  1  0.42127121  0.75049666  0.97142055  1.0
  F  F349  1  0.64579184  0.08017155  0.85147622  1.0
  F  F350  1  0.65040802  0.21625887  0.85617394  1.0
