# generated using pymatgen
data_Zn2H43C62N4Cl(OF)8
_symmetry_space_group_name_H-M   'P 1'
_cell_length_a   18.50182795
_cell_length_b   17.97134370
_cell_length_c   19.49118344
_cell_angle_alpha   85.83993760
_cell_angle_beta   90.07847228
_cell_angle_gamma   88.52930515
_symmetry_Int_Tables_number   1
_chemical_formula_structural   Zn2H43C62N4Cl(OF)8
_chemical_formula_sum   'Zn6 H129 C186 N12 Cl3 O24 F24'
_cell_volume   6461.63282753
_cell_formula_units_Z   3
loop_
 _symmetry_equiv_pos_site_id
 _symmetry_equiv_pos_as_xyz
  1  'x, y, z'
loop_
 _atom_site_type_symbol
 _atom_site_label
 _atom_site_symmetry_multiplicity
 _atom_site_fract_x
 _atom_site_fract_y
 _atom_site_fract_z
 _atom_site_occupancy
  Zn  Zn0  1  0.76849812  0.81766378  0.25086315  1.0
  Zn  Zn1  1  0.92688312  0.81763290  0.25109700  1.0
  Zn  Zn2  1  0.10149812  0.15066378  0.58386315  1.0
  Zn  Zn3  1  0.25988312  0.15063290  0.58409700  1.0
  Zn  Zn4  1  0.43449812  0.48366378  0.91686315  1.0
  Zn  Zn5  1  0.59288312  0.48363290  0.91709700  1.0
  H  H6  1  0.72326586  0.83700817  0.13981440  1.0
  H  H7  1  0.65878995  0.78954400  0.09385467  1.0
  H  H8  1  0.64984903  0.88825515  0.09997781  1.0
  H  H9  1  0.73079887  0.80032347  0.35791860  1.0
  H  H10  1  0.66574930  0.84757242  0.40580123  1.0
  H  H11  1  0.66378014  0.74823723  0.40286851  1.0
  H  H12  1  0.55304225  0.82097801  0.42730554  1.0
  H  H13  1  0.46946870  0.84374006  0.38983421  1.0
  H  H14  1  0.50107064  0.74804749  0.40191022  1.0
  H  H15  1  0.45547209  0.80042241  0.12132818  1.0
  H  H16  1  0.50857080  0.87955756  0.09750168  1.0
  H  H17  1  0.53961652  0.78675205  0.08594098  1.0
  H  H18  1  0.41721547  0.72724298  0.33760443  1.0
  H  H19  1  0.17248505  0.70003070  0.30030589  1.0
  H  H20  1  0.04062672  0.71124196  0.29839872  1.0
  H  H21  1  0.04292009  0.92316957  0.20372797  1.0
  H  H22  1  0.17517205  0.92697477  0.20886175  1.0
  H  H23  1  0.27956184  0.89030711  0.16901270  1.0
  H  H24  1  0.40801552  0.90155461  0.17470036  1.0
  H  H25  1  0.89442024  0.57739199  0.14836989  1.0
  H  H26  1  0.87403742  0.44302649  0.16165558  1.0
  H  H27  1  0.86859795  0.28274570  0.32707252  1.0
  H  H28  1  0.84304120  0.35532600  0.37619171  1.0
  H  H29  1  0.76278723  0.24897438  0.40337850  1.0
  H  H30  1  0.71410067  0.32726811  0.36776630  1.0
  H  H31  1  0.66974293  0.22185054  0.31493121  1.0
  H  H32  1  0.84515338  0.16940651  0.36633908  1.0
  H  H33  1  0.91405378  0.06181281  0.33568620  1.0
  H  H34  1  0.76258069  0.02893066  0.17261908  1.0
  H  H35  1  0.69461646  0.14148878  0.20049007  1.0
  H  H36  1  0.69166047  0.26607719  0.18988548  1.0
  H  H37  1  0.67395232  0.33718605  0.24478448  1.0
  H  H38  1  0.82397181  0.29053031  0.19360278  1.0
  H  H39  1  0.77158548  0.37097580  0.16743490  1.0
  H  H40  1  0.81928468  0.93975003  0.90936577  1.0
  H  H41  1  0.73192512  0.83754742  0.45016906  1.0
  H  H42  1  0.91063490  0.73451823  0.82000035  1.0
  H  H43  1  0.71611293  0.97164718  0.69893690  1.0
  H  H44  1  0.75825616  0.94773158  0.62429233  1.0
  H  H45  1  0.68070878  0.89781216  0.65690206  1.0
  H  H46  1  0.71093320  0.89881799  0.87154188  1.0
  H  H47  1  0.73388707  0.97244428  0.81054064  1.0
  H  H48  1  0.66713164  0.90583655  0.79296975  1.0
  H  H49  1  0.05626586  0.17000817  0.47281440  1.0
  H  H50  1  0.99178995  0.12254400  0.42685467  1.0
  H  H51  1  0.98284903  0.22125515  0.43297781  1.0
  H  H52  1  0.06379887  0.13332347  0.69091860  1.0
  H  H53  1  0.99874930  0.18057242  0.73880123  1.0
  H  H54  1  0.99678014  0.08123723  0.73586851  1.0
  H  H55  1  0.88604225  0.15397801  0.76030554  1.0
  H  H56  1  0.80246870  0.17674006  0.72283421  1.0
  H  H57  1  0.83407064  0.08104749  0.73491022  1.0
  H  H58  1  0.78847209  0.13342241  0.45432818  1.0
  H  H59  1  0.84157080  0.21255756  0.43050168  1.0
  H  H60  1  0.87261652  0.11975205  0.41894098  1.0
  H  H61  1  0.75021547  0.06024298  0.67060443  1.0
  H  H62  1  0.50548505  0.03303070  0.63330589  1.0
  H  H63  1  0.37362672  0.04424196  0.63139872  1.0
  H  H64  1  0.37592009  0.25616957  0.53672797  1.0
  H  H65  1  0.50817205  0.25997477  0.54186175  1.0
  H  H66  1  0.61256184  0.22330711  0.50201270  1.0
  H  H67  1  0.74101552  0.23455461  0.50770036  1.0
  H  H68  1  0.22742024  0.91039199  0.48136989  1.0
  H  H69  1  0.20703742  0.77602649  0.49465558  1.0
  H  H70  1  0.20159795  0.61574570  0.66007252  1.0
  H  H71  1  0.17604120  0.68832600  0.70919171  1.0
  H  H72  1  0.09578723  0.58197438  0.73637850  1.0
  H  H73  1  0.04710067  0.66026811  0.70076630  1.0
  H  H74  1  0.00274293  0.55485054  0.64793121  1.0
  H  H75  1  0.17815338  0.50240651  0.69933908  1.0
  H  H76  1  0.24705378  0.39481281  0.66868620  1.0
  H  H77  1  0.09558069  0.36193066  0.50561908  1.0
  H  H78  1  0.02761646  0.47448878  0.53349007  1.0
  H  H79  1  0.02466047  0.59907719  0.52288548  1.0
  H  H80  1  0.00695232  0.67018605  0.57778448  1.0
  H  H81  1  0.15697181  0.62353031  0.52660278  1.0
  H  H82  1  0.10458548  0.70397580  0.50043490  1.0
  H  H83  1  0.15228468  0.27275003  0.24236577  1.0
  H  H84  1  0.06492512  0.17054742  0.78316906  1.0
  H  H85  1  0.24363490  0.06751823  0.15300035  1.0
  H  H86  1  0.04911293  0.30464718  0.03193690  1.0
  H  H87  1  0.09125616  0.28073158  0.95729233  1.0
  H  H88  1  0.01370878  0.23081216  0.98990206  1.0
  H  H89  1  0.04393320  0.23181799  0.20454188  1.0
  H  H90  1  0.06688707  0.30544428  0.14354064  1.0
  H  H91  1  0.00013164  0.23883655  0.12596975  1.0
  H  H92  1  0.38926586  0.50300817  0.80581440  1.0
  H  H93  1  0.32478995  0.45554400  0.75985467  1.0
  H  H94  1  0.31584903  0.55425515  0.76597781  1.0
  H  H95  1  0.39679887  0.46632347  0.02391860  1.0
  H  H96  1  0.33174930  0.51357242  0.07180123  1.0
  H  H97  1  0.32978014  0.41423723  0.06886851  1.0
  H  H98  1  0.21904225  0.48697801  0.09330554  1.0
  H  H99  1  0.13546870  0.50974006  0.05583421  1.0
  H  H100  1  0.16707064  0.41404749  0.06791022  1.0
  H  H101  1  0.12147209  0.46642241  0.78732818  1.0
  H  H102  1  0.17457080  0.54555756  0.76350168  1.0
  H  H103  1  0.20561652  0.45275205  0.75194098  1.0
  H  H104  1  0.08321547  0.39324298  0.00360443  1.0
  H  H105  1  0.83848505  0.36603070  0.96630589  1.0
  H  H106  1  0.70662672  0.37724196  0.96439872  1.0
  H  H107  1  0.70892009  0.58916957  0.86972797  1.0
  H  H108  1  0.84117205  0.59297477  0.87486175  1.0
  H  H109  1  0.94556184  0.55630711  0.83501270  1.0
  H  H110  1  0.07401552  0.56755461  0.84070036  1.0
  H  H111  1  0.56042024  0.24339199  0.81436989  1.0
  H  H112  1  0.54003742  0.10902649  0.82765558  1.0
  H  H113  1  0.53459795  0.94874570  0.99307252  1.0
  H  H114  1  0.50904120  0.02132600  0.04219171  1.0
  H  H115  1  0.42878723  0.91497438  0.06937850  1.0
  H  H116  1  0.38010067  0.99326811  0.03376630  1.0
  H  H117  1  0.33574293  0.88785054  0.98093121  1.0
  H  H118  1  0.51115338  0.83540651  0.03233908  1.0
  H  H119  1  0.58005378  0.72781281  0.00168620  1.0
  H  H120  1  0.42858069  0.69493066  0.83861908  1.0
  H  H121  1  0.36061646  0.80748878  0.86649007  1.0
  H  H122  1  0.35766047  0.93207719  0.85588548  1.0
  H  H123  1  0.33995232  0.00318605  0.91078448  1.0
  H  H124  1  0.48997181  0.95653031  0.85960278  1.0
  H  H125  1  0.43758548  0.03697580  0.83343490  1.0
  H  H126  1  0.48528468  0.60575003  0.57536577  1.0
  H  H127  1  0.39792512  0.50354742  0.11616906  1.0
  H  H128  1  0.57663490  0.40051823  0.48600035  1.0
  H  H129  1  0.38211293  0.63764718  0.36493690  1.0
  H  H130  1  0.42425616  0.61373158  0.29029233  1.0
  H  H131  1  0.34670878  0.56381216  0.32290206  1.0
  H  H132  1  0.37693320  0.56481799  0.53754188  1.0
  H  H133  1  0.39988707  0.63844428  0.47654064  1.0
  H  H134  1  0.33313164  0.57183655  0.45896975  1.0
  C  C135  1  0.66561956  0.83499701  0.12748764  1.0
  C  C136  1  0.62159925  0.82282362  0.19198401  1.0
  C  C137  1  0.62526458  0.81019646  0.31118726  1.0
  C  C138  1  0.67385536  0.80093029  0.37316816  1.0
  C  C139  1  0.54938958  0.81061816  0.31617262  1.0
  C  C140  1  0.51614585  0.80548019  0.38718775  1.0
  C  C141  1  0.50743296  0.81438989  0.25392889  1.0
  C  C142  1  0.54587096  0.81902366  0.19042327  1.0
  C  C143  1  0.51007231  0.82199450  0.12044623  1.0
  C  C144  1  0.42629460  0.81409003  0.25580362  1.0
  C  C145  1  0.38814705  0.76707404  0.30251789  1.0
  C  C146  1  0.31235452  0.77073723  0.30836420  1.0
  C  C147  1  0.26914139  0.81284280  0.25945446  1.0
  C  C148  1  0.18864089  0.81399470  0.25707857  1.0
  C  C149  1  0.14768296  0.75241130  0.28013198  1.0
  C  C150  1  0.07277298  0.75740349  0.27795144  1.0
  C  C151  1  0.07412495  0.87567778  0.22664202  1.0
  C  C152  1  0.14898298  0.87673819  0.22938809  1.0
  C  C153  1  0.30773111  0.85712937  0.21014650  1.0
  C  C154  1  0.38338911  0.86140488  0.21142249  1.0
  C  C155  1  0.85312169  0.59916460  0.24913577  1.0
  C  C156  1  0.87098779  0.55358618  0.19602633  1.0
  C  C157  1  0.85836101  0.47690447  0.20360584  1.0
  C  C158  1  0.82788682  0.44343139  0.26377792  1.0
  C  C159  1  0.81183604  0.49054152  0.31674796  1.0
  C  C160  1  0.82426268  0.56662532  0.30933564  1.0
  C  C161  1  0.82447795  0.32312819  0.33424754  1.0
  C  C162  1  0.75452084  0.28433759  0.35567710  1.0
  C  C163  1  0.72374390  0.23950688  0.29812502  1.0
  C  C164  1  0.76529946  0.16744649  0.28414834  1.0
  C  C165  1  0.82578043  0.14080617  0.32295751  1.0
  C  C166  1  0.86501149  0.07693890  0.30663899  1.0
  C  C167  1  0.84226644  0.03613244  0.25282474  1.0
  C  C168  1  0.78071763  0.06015876  0.21502086  1.0
  C  C169  1  0.74248153  0.12480414  0.23084239  1.0
  C  C170  1  0.71394156  0.29356015  0.23324576  1.0
  C  C171  1  0.78434673  0.33116120  0.21136254  1.0
  C  C172  1  0.84771011  0.81859424  0.04939538  1.0
  C  C173  1  0.85815344  0.75353650  0.01566779  1.0
  C  C174  1  0.85023866  0.75397257  0.94425970  1.0
  C  C175  1  0.83441478  0.81984704  0.90255876  1.0
  C  C176  1  0.82849851  0.88562846  0.93727773  1.0
  C  C177  1  0.83255032  0.88425010  0.00909875  1.0
  C  C178  1  0.82716356  0.82017777  0.82612778  1.0
  C  C179  1  0.77756751  0.86553329  0.78499098  1.0
  C  C180  1  0.78010084  0.86698663  0.71071806  1.0
  C  C181  1  0.82547115  0.81549753  0.67643258  1.0
  C  C182  1  0.83159503  0.81540903  0.59923599  1.0
  C  C183  1  0.89936816  0.80843496  0.56684251  1.0
  C  C184  1  0.90698596  0.80538778  0.49577660  1.0
  C  C185  1  0.84767805  0.81670282  0.45256510  1.0
  C  C186  1  0.77990379  0.82696107  0.48218696  1.0
  C  C187  1  0.77231413  0.82233078  0.55383402  1.0
  C  C188  1  0.86790751  0.76494369  0.71989855  1.0
  C  C189  1  0.87161034  0.77115032  0.79109470  1.0
  C  C190  1  0.90866492  0.70320008  0.69518172  1.0
  C  C191  1  0.73122279  0.92365146  0.67019987  1.0
  C  C192  1  0.71974538  0.91352850  0.81697255  1.0
  C  C193  1  0.84775612  0.81409631  0.37633236  1.0
  C  C194  1  0.84762682  0.82120130  0.12562787  1.0
  C  C195  1  0.84431483  0.95354904  0.24939191  1.0
  C  C196  1  0.85106809  0.68174768  0.25256834  1.0
  C  C197  1  0.99861956  0.16799701  0.46048764  1.0
  C  C198  1  0.95459925  0.15582362  0.52498401  1.0
  C  C199  1  0.95826458  0.14319646  0.64418726  1.0
  C  C200  1  0.00685536  0.13393029  0.70616816  1.0
  C  C201  1  0.88238958  0.14361816  0.64917262  1.0
  C  C202  1  0.84914585  0.13848019  0.72018775  1.0
  C  C203  1  0.84043296  0.14738989  0.58692889  1.0
  C  C204  1  0.87887096  0.15202366  0.52342327  1.0
  C  C205  1  0.84307231  0.15499450  0.45344623  1.0
  C  C206  1  0.75929460  0.14709003  0.58880362  1.0
  C  C207  1  0.72114705  0.10007404  0.63551789  1.0
  C  C208  1  0.64535452  0.10373723  0.64136420  1.0
  C  C209  1  0.60214139  0.14584280  0.59245446  1.0
  C  C210  1  0.52164089  0.14699470  0.59007857  1.0
  C  C211  1  0.48068296  0.08541130  0.61313198  1.0
  C  C212  1  0.40577298  0.09040349  0.61095144  1.0
  C  C213  1  0.40712495  0.20867778  0.55964202  1.0
  C  C214  1  0.48198298  0.20973819  0.56238809  1.0
  C  C215  1  0.64073111  0.19012937  0.54314650  1.0
  C  C216  1  0.71638911  0.19440488  0.54442249  1.0
  C  C217  1  0.18612169  0.93216460  0.58213577  1.0
  C  C218  1  0.20398779  0.88658618  0.52902633  1.0
  C  C219  1  0.19136101  0.80990447  0.53660584  1.0
  C  C220  1  0.16088682  0.77643139  0.59677792  1.0
  C  C221  1  0.14483604  0.82354152  0.64974796  1.0
  C  C222  1  0.15726268  0.89962532  0.64233564  1.0
  C  C223  1  0.15747795  0.65612819  0.66724754  1.0
  C  C224  1  0.08752084  0.61733759  0.68867710  1.0
  C  C225  1  0.05674390  0.57250688  0.63112502  1.0
  C  C226  1  0.09829946  0.50044649  0.61714834  1.0
  C  C227  1  0.15878043  0.47380617  0.65595751  1.0
  C  C228  1  0.19801149  0.40993890  0.63963899  1.0
  C  C229  1  0.17526644  0.36913244  0.58582474  1.0
  C  C230  1  0.11371763  0.39315876  0.54802086  1.0
  C  C231  1  0.07548153  0.45780414  0.56384239  1.0
  C  C232  1  0.04694156  0.62656015  0.56624576  1.0
  C  C233  1  0.11734673  0.66416120  0.54436254  1.0
  C  C234  1  0.18071011  0.15159424  0.38239538  1.0
  C  C235  1  0.19115344  0.08653650  0.34866779  1.0
  C  C236  1  0.18323866  0.08697257  0.27725970  1.0
  C  C237  1  0.16741478  0.15284704  0.23555876  1.0
  C  C238  1  0.16149851  0.21862846  0.27027773  1.0
  C  C239  1  0.16555032  0.21725010  0.34209875  1.0
  C  C240  1  0.16016356  0.15317777  0.15912778  1.0
  C  C241  1  0.11056751  0.19853329  0.11799098  1.0
  C  C242  1  0.11310084  0.19998663  0.04371806  1.0
  C  C243  1  0.15847115  0.14849753  0.00943258  1.0
  C  C244  1  0.16459503  0.14840903  0.93223599  1.0
  C  C245  1  0.23236816  0.14143496  0.89984251  1.0
  C  C246  1  0.23998596  0.13838778  0.82877660  1.0
  C  C247  1  0.18067805  0.14970282  0.78556510  1.0
  C  C248  1  0.11290379  0.15996107  0.81518696  1.0
  C  C249  1  0.10531413  0.15533078  0.88683402  1.0
  C  C250  1  0.20090751  0.09794369  0.05289855  1.0
  C  C251  1  0.20461034  0.10415032  0.12409470  1.0
  C  C252  1  0.24166492  0.03620008  0.02818172  1.0
  C  C253  1  0.06422279  0.25665146  0.00319987  1.0
  C  C254  1  0.05274538  0.24652850  0.14997255  1.0
  C  C255  1  0.18075612  0.14709631  0.70933236  1.0
  C  C256  1  0.18062682  0.15420130  0.45862787  1.0
  C  C257  1  0.17731483  0.28654904  0.58239191  1.0
  C  C258  1  0.18406809  0.01474768  0.58556834  1.0
  C  C259  1  0.33161956  0.50099701  0.79348764  1.0
  C  C260  1  0.28759925  0.48882362  0.85798401  1.0
  C  C261  1  0.29126458  0.47619646  0.97718726  1.0
  C  C262  1  0.33985536  0.46693029  0.03916816  1.0
  C  C263  1  0.21538958  0.47661816  0.98217262  1.0
  C  C264  1  0.18214585  0.47148019  0.05318775  1.0
  C  C265  1  0.17343296  0.48038989  0.91992889  1.0
  C  C266  1  0.21187096  0.48502366  0.85642327  1.0
  C  C267  1  0.17607231  0.48799450  0.78644623  1.0
  C  C268  1  0.09229460  0.48009003  0.92180362  1.0
  C  C269  1  0.05414705  0.43307404  0.96851789  1.0
  C  C270  1  0.97835452  0.43673723  0.97436420  1.0
  C  C271  1  0.93514139  0.47884280  0.92545446  1.0
  C  C272  1  0.85464089  0.47999470  0.92307857  1.0
  C  C273  1  0.81368296  0.41841130  0.94613198  1.0
  C  C274  1  0.73877298  0.42340349  0.94395144  1.0
  C  C275  1  0.74012495  0.54167778  0.89264202  1.0
  C  C276  1  0.81498298  0.54273819  0.89538809  1.0
  C  C277  1  0.97373111  0.52312937  0.87614650  1.0
  C  C278  1  0.04938911  0.52740488  0.87742249  1.0
  C  C279  1  0.51912169  0.26516460  0.91513577  1.0
  C  C280  1  0.53698779  0.21958618  0.86202633  1.0
  C  C281  1  0.52436101  0.14290447  0.86960584  1.0
  C  C282  1  0.49388682  0.10943139  0.92977792  1.0
  C  C283  1  0.47783604  0.15654152  0.98274796  1.0
  C  C284  1  0.49026268  0.23262532  0.97533564  1.0
  C  C285  1  0.49047795  0.98912819  0.00024754  1.0
  C  C286  1  0.42052084  0.95033759  0.02167710  1.0
  C  C287  1  0.38974390  0.90550688  0.96412502  1.0
  C  C288  1  0.43129946  0.83344649  0.95014834  1.0
  C  C289  1  0.49178043  0.80680617  0.98895751  1.0
  C  C290  1  0.53101149  0.74293890  0.97263899  1.0
  C  C291  1  0.50826644  0.70213244  0.91882474  1.0
  C  C292  1  0.44671763  0.72615876  0.88102086  1.0
  C  C293  1  0.40848153  0.79080414  0.89684239  1.0
  C  C294  1  0.37994156  0.95956015  0.89924576  1.0
  C  C295  1  0.45034673  0.99716120  0.87736254  1.0
  C  C296  1  0.51371011  0.48459424  0.71539538  1.0
  C  C297  1  0.52415344  0.41953650  0.68166779  1.0
  C  C298  1  0.51623866  0.41997257  0.61025970  1.0
  C  C299  1  0.50041478  0.48584704  0.56855876  1.0
  C  C300  1  0.49449851  0.55162846  0.60327773  1.0
  C  C301  1  0.49855032  0.55025010  0.67509875  1.0
  C  C302  1  0.49316356  0.48617777  0.49212778  1.0
  C  C303  1  0.44356751  0.53153329  0.45099098  1.0
  C  C304  1  0.44610084  0.53298663  0.37671806  1.0
  C  C305  1  0.49147115  0.48149753  0.34243258  1.0
  C  C306  1  0.49759503  0.48140903  0.26523599  1.0
  C  C307  1  0.56536816  0.47443496  0.23284251  1.0
  C  C308  1  0.57298596  0.47138778  0.16177660  1.0
  C  C309  1  0.51367805  0.48270282  0.11856510  1.0
  C  C310  1  0.44590379  0.49296107  0.14818696  1.0
  C  C311  1  0.43831413  0.48833078  0.21983402  1.0
  C  C312  1  0.53390751  0.43094369  0.38589855  1.0
  C  C313  1  0.53761034  0.43715032  0.45709470  1.0
  C  C314  1  0.57466492  0.36920008  0.36118172  1.0
  C  C315  1  0.39722279  0.58965146  0.33619987  1.0
  C  C316  1  0.38574538  0.57952850  0.48297255  1.0
  C  C317  1  0.51375612  0.48009631  0.04233236  1.0
  C  C318  1  0.51362682  0.48720130  0.79162787  1.0
  C  C319  1  0.51031483  0.61954904  0.91539191  1.0
  C  C320  1  0.51706809  0.34774768  0.91856834  1.0
  N  N321  1  0.66040487  0.81768544  0.25069802  1.0
  N  N322  1  0.03497620  0.81761737  0.25125658  1.0
  N  N323  1  0.81387826  0.36800505  0.26930750  1.0
  N  N324  1  0.94098704  0.65207822  0.67584902  1.0
  N  N325  1  0.99340487  0.15068544  0.58369802  1.0
  N  N326  1  0.36797620  0.15061737  0.58425658  1.0
  N  N327  1  0.14687826  0.70100505  0.60230750  1.0
  N  N328  1  0.27398704  0.98507822  0.00884902  1.0
  N  N329  1  0.32640487  0.48368544  0.91669802  1.0
  N  N330  1  0.70097620  0.48361737  0.91725658  1.0
  N  N331  1  0.47987826  0.03400505  0.93530750  1.0
  N  N332  1  0.60698704  0.31807822  0.34184902  1.0
  Cl  Cl333  1  0.27905168  0.72574624  0.38320817  1.0
  Cl  Cl334  1  0.61205168  0.05874624  0.71620817  1.0
  Cl  Cl335  1  0.94505168  0.39174624  0.04920817  1.0
  O  O336  1  0.90770523  0.82206130  0.15130090  1.0
  O  O337  1  0.90788828  0.81321232  0.35083661  1.0
  O  O338  1  0.90510857  0.92582216  0.24833131  1.0
  O  O339  1  0.91048488  0.70945146  0.25380615  1.0
  O  O340  1  0.78489631  0.92584522  0.24815400  1.0
  O  O341  1  0.78767599  0.81323627  0.35065927  1.0
  O  O342  1  0.78749294  0.82208522  0.15112274  1.0
  O  O343  1  0.79027259  0.70947538  0.25362804  1.0
  O  O344  1  0.24070523  0.15506130  0.48430090  1.0
  O  O345  1  0.24088828  0.14621232  0.68383661  1.0
  O  O346  1  0.23810857  0.25882216  0.58133131  1.0
  O  O347  1  0.24348488  0.04245146  0.58680615  1.0
  O  O348  1  0.11789631  0.25884522  0.58115400  1.0
  O  O349  1  0.12067599  0.14623627  0.68365927  1.0
  O  O350  1  0.12049294  0.15508522  0.48412274  1.0
  O  O351  1  0.12327259  0.04247538  0.58662804  1.0
  O  O352  1  0.57370523  0.48806130  0.81730090  1.0
  O  O353  1  0.57388828  0.47921232  0.01683661  1.0
  O  O354  1  0.57110857  0.59182216  0.91433131  1.0
  O  O355  1  0.57648488  0.37545146  0.91980615  1.0
  O  O356  1  0.45089631  0.59184522  0.91415400  1.0
  O  O357  1  0.45367599  0.47923627  0.01665927  1.0
  O  O358  1  0.45349294  0.48808522  0.81712274  1.0
  O  O359  1  0.45627259  0.37547538  0.91962804  1.0
  F  F360  1  0.80647989  0.60848066  0.36140080  1.0
  F  F361  1  0.78086834  0.46323137  0.37517283  1.0
  F  F362  1  0.82028432  0.94864605  0.03853188  1.0
  F  F363  1  0.96042619  0.80529384  0.60434367  1.0
  F  F364  1  0.70454122  0.82411010  0.57767645  1.0
  F  F365  1  0.97280924  0.79182761  0.46984885  1.0
  F  F366  1  0.85805961  0.68837570  0.91600864  1.0
  F  F367  1  0.87590660  0.68838835  0.05031906  1.0
  F  F368  1  0.13947989  0.94148066  0.69440080  1.0
  F  F369  1  0.11386834  0.79623137  0.70817283  1.0
  F  F370  1  0.15328432  0.28164605  0.37153188  1.0
  F  F371  1  0.29342619  0.13829384  0.93734367  1.0
  F  F372  1  0.03754122  0.15711010  0.91067645  1.0
  F  F373  1  0.30580924  0.12482761  0.80284885  1.0
  F  F374  1  0.19105961  0.02137570  0.24900864  1.0
  F  F375  1  0.20890660  0.02138835  0.38331906  1.0
  F  F376  1  0.47247989  0.27448066  0.02740080  1.0
  F  F377  1  0.44686834  0.12923137  0.04117283  1.0
  F  F378  1  0.48628432  0.61464605  0.70453188  1.0
  F  F379  1  0.62642619  0.47129384  0.27034367  1.0
  F  F380  1  0.37054122  0.49011010  0.24367645  1.0
  F  F381  1  0.63880924  0.45782761  0.13584885  1.0
  F  F382  1  0.52405961  0.35437570  0.58200864  1.0
  F  F383  1  0.54190660  0.35438835  0.71631906  1.0
