# generated using pymatgen
data_Cu2H37C56N7Cl(OF)9
_symmetry_space_group_name_H-M   'P 1'
_cell_length_a   17.54723526
_cell_length_b   19.21584478
_cell_length_c   19.54311811
_cell_angle_alpha   85.87165346
_cell_angle_beta   91.52932783
_cell_angle_gamma   90.73695719
_symmetry_Int_Tables_number   1
_chemical_formula_structural   Cu2H37C56N7Cl(OF)9
_chemical_formula_sum   'Cu6 H111 C168 N21 Cl3 O27 F27'
_cell_volume   6569.81031855
_cell_formula_units_Z   3
loop_
 _symmetry_equiv_pos_site_id
 _symmetry_equiv_pos_as_xyz
  1  'x, y, z'
loop_
 _atom_site_type_symbol
 _atom_site_label
 _atom_site_symmetry_multiplicity
 _atom_site_fract_x
 _atom_site_fract_y
 _atom_site_fract_z
 _atom_site_occupancy
  Cu  Cu0  1  0.92748987  0.88863076  0.18768669  1.0
  Cu  Cu1  1  0.07744984  0.89046137  0.19147283  1.0
  Cu  Cu2  1  0.26048987  0.22163076  0.52068669  1.0
  Cu  Cu3  1  0.41044984  0.22346137  0.52447283  1.0
  Cu  Cu4  1  0.59348987  0.55463076  0.85368669  1.0
  Cu  Cu5  1  0.74344984  0.55646137  0.85747283  1.0
  H  H6  1  0.69413261  0.83152888  0.06869140  1.0
  H  H7  1  0.54882154  0.91066383  0.24231913  1.0
  H  H8  1  0.34667633  0.91305706  0.10822425  1.0
  H  H9  1  0.20677577  0.90166936  0.09095168  1.0
  H  H10  1  0.90093019  0.55436075  0.11938824  1.0
  H  H11  1  0.10023940  0.66996249  0.25874398  1.0
  H  H12  1  0.01070140  0.35011875  0.09500224  1.0
  H  H13  1  0.91395866  0.33953213  0.11798266  1.0
  H  H14  1  0.02643252  0.11539794  0.08324050  1.0
  H  H15  1  0.96797665  0.09096752  0.29660462  1.0
  H  H16  1  0.95541116  0.21656739  0.29794473  1.0
  H  H17  1  0.03383991  0.44791915  0.29939432  1.0
  H  H18  1  0.07554358  0.26473352  0.31447409  1.0
  H  H19  1  0.00622233  0.30897302  0.36015703  1.0
  H  H20  1  0.09686830  0.34649275  0.34264778  1.0
  H  H21  1  0.93361811  0.05293282  0.47886586  1.0
  H  H22  1  0.97122140  0.03161189  0.56112005  1.0
  H  H23  1  0.87777511  0.00085298  0.53507681  1.0
  H  H24  1  0.93708646  0.98367542  0.39284064  1.0
  H  H25  1  0.08958843  0.79088828  0.34215958  1.0
  H  H26  1  0.04723410  0.72925638  0.40177208  1.0
  H  H27  1  0.13626726  0.77119246  0.42062464  1.0
  H  H28  1  0.10585417  0.83188538  0.64064333  1.0
  H  H29  1  0.84992886  0.86798218  0.79524541  1.0
  H  H30  1  0.82468409  0.93426325  0.84987099  1.0
  H  H31  1  0.81794302  0.84513453  0.87770345  1.0
  H  H32  1  0.88105856  0.89021782  0.97725383  1.0
  H  H33  1  0.19552242  0.91479889  0.87700973  1.0
  H  H34  1  0.14723551  0.92869877  0.79923292  1.0
  H  H35  1  0.16623534  0.84169140  0.83578435  1.0
  H  H36  1  0.14303206  0.89219109  0.04938442  1.0
  H  H37  1  0.18563695  0.92979785  0.97698076  1.0
  H  H38  1  0.17580868  0.83686663  0.98836322  1.0
  H  H39  1  0.89639586  0.94554035  0.62325843  1.0
  H  H40  1  0.06808337  0.72178942  0.51275661  1.0
  H  H41  1  0.02998780  0.75023263  0.58615636  1.0
  H  H42  1  0.12500114  0.77704447  0.56030591  1.0
  H  H43  1  0.02713261  0.16452888  0.40169140  1.0
  H  H44  1  0.88182154  0.24366383  0.57531913  1.0
  H  H45  1  0.67967633  0.24605706  0.44122425  1.0
  H  H46  1  0.53977577  0.23466936  0.42395168  1.0
  H  H47  1  0.23393019  0.88736075  0.45238824  1.0
  H  H48  1  0.43323940  0.00296249  0.59174398  1.0
  H  H49  1  0.34370140  0.68311875  0.42800224  1.0
  H  H50  1  0.24695866  0.67253213  0.45098266  1.0
  H  H51  1  0.35943252  0.44839794  0.41624050  1.0
  H  H52  1  0.30097665  0.42396752  0.62960462  1.0
  H  H53  1  0.28841116  0.54956739  0.63094473  1.0
  H  H54  1  0.36683991  0.78091915  0.63239432  1.0
  H  H55  1  0.40854358  0.59773352  0.64747409  1.0
  H  H56  1  0.33922233  0.64197302  0.69315703  1.0
  H  H57  1  0.42986830  0.67949275  0.67564778  1.0
  H  H58  1  0.26661811  0.38593282  0.81186586  1.0
  H  H59  1  0.30422140  0.36461189  0.89412005  1.0
  H  H60  1  0.21077511  0.33385298  0.86807681  1.0
  H  H61  1  0.27008646  0.31667542  0.72584064  1.0
  H  H62  1  0.42258843  0.12388828  0.67515958  1.0
  H  H63  1  0.38023410  0.06225638  0.73477208  1.0
  H  H64  1  0.46926726  0.10419246  0.75362464  1.0
  H  H65  1  0.43885417  0.16488538  0.97364333  1.0
  H  H66  1  0.18292886  0.20098218  0.12824541  1.0
  H  H67  1  0.15768409  0.26726325  0.18287099  1.0
  H  H68  1  0.15094302  0.17813453  0.21070345  1.0
  H  H69  1  0.21405856  0.22321782  0.31025383  1.0
  H  H70  1  0.52852242  0.24779889  0.21000973  1.0
  H  H71  1  0.48023551  0.26169877  0.13223292  1.0
  H  H72  1  0.49923534  0.17469140  0.16878435  1.0
  H  H73  1  0.47603206  0.22519109  0.38238442  1.0
  H  H74  1  0.51863695  0.26279785  0.30998076  1.0
  H  H75  1  0.50880868  0.16986663  0.32136322  1.0
  H  H76  1  0.22939586  0.27854035  0.95625843  1.0
  H  H77  1  0.40108337  0.05478942  0.84575661  1.0
  H  H78  1  0.36298780  0.08323263  0.91915636  1.0
  H  H79  1  0.45800114  0.11004447  0.89330591  1.0
  H  H80  1  0.36013261  0.49752888  0.73469140  1.0
  H  H81  1  0.21482154  0.57666383  0.90831913  1.0
  H  H82  1  0.01267633  0.57905706  0.77422425  1.0
  H  H83  1  0.87277577  0.56766936  0.75695168  1.0
  H  H84  1  0.56693019  0.22036075  0.78538824  1.0
  H  H85  1  0.76623940  0.33596249  0.92474398  1.0
  H  H86  1  0.67670140  0.01611875  0.76100224  1.0
  H  H87  1  0.57995866  0.00553213  0.78398266  1.0
  H  H88  1  0.69243252  0.78139794  0.74924050  1.0
  H  H89  1  0.63397665  0.75696752  0.96260462  1.0
  H  H90  1  0.62141116  0.88256739  0.96394473  1.0
  H  H91  1  0.69983991  0.11391915  0.96539432  1.0
  H  H92  1  0.74154358  0.93073352  0.98047409  1.0
  H  H93  1  0.67222233  0.97497302  0.02615703  1.0
  H  H94  1  0.76286830  0.01249275  0.00864778  1.0
  H  H95  1  0.59961811  0.71893282  0.14486586  1.0
  H  H96  1  0.63722140  0.69761189  0.22712005  1.0
  H  H97  1  0.54377511  0.66685298  0.20107681  1.0
  H  H98  1  0.60308646  0.64967542  0.05884064  1.0
  H  H99  1  0.75558843  0.45688828  0.00815958  1.0
  H  H100  1  0.71323410  0.39525638  0.06777208  1.0
  H  H101  1  0.80226726  0.43719246  0.08662464  1.0
  H  H102  1  0.77185417  0.49788538  0.30664333  1.0
  H  H103  1  0.51592886  0.53398218  0.46124541  1.0
  H  H104  1  0.49068409  0.60026325  0.51587099  1.0
  H  H105  1  0.48394302  0.51113453  0.54370345  1.0
  H  H106  1  0.54705856  0.55621782  0.64325383  1.0
  H  H107  1  0.86152242  0.58079889  0.54300973  1.0
  H  H108  1  0.81323551  0.59469877  0.46523292  1.0
  H  H109  1  0.83223534  0.50769140  0.50178435  1.0
  H  H110  1  0.80903206  0.55819109  0.71538442  1.0
  H  H111  1  0.85163695  0.59579785  0.64298076  1.0
  H  H112  1  0.84180868  0.50286663  0.65436322  1.0
  H  H113  1  0.56239586  0.61154035  0.28925843  1.0
  H  H114  1  0.73408337  0.38778942  0.17875661  1.0
  H  H115  1  0.69598780  0.41623263  0.25215636  1.0
  H  H116  1  0.79100114  0.44304447  0.22630591  1.0
  C  C117  1  0.79158239  0.86062073  0.12855118  1.0
  C  C118  1  0.71417126  0.85365807  0.11558138  1.0
  C  C119  1  0.66389036  0.87550073  0.16389502  1.0
  C  C120  1  0.69370307  0.90345928  0.22253380  1.0
  C  C121  1  0.77219641  0.90811758  0.23059769  1.0
  C  C122  1  0.58081251  0.86746757  0.15019736  1.0
  C  C123  1  0.34127114  0.90233942  0.21938076  1.0
  C  C124  1  0.31032137  0.90608960  0.15239653  1.0
  C  C125  1  0.23216265  0.90004702  0.14239605  1.0
  C  C126  1  0.21358965  0.88956713  0.25854147  1.0
  C  C127  1  0.29101193  0.89465157  0.27348526  1.0
  C  C128  1  0.00303997  0.68521618  0.18859367  1.0
  C  C129  1  0.94820338  0.65156447  0.14946988  1.0
  C  C130  1  0.94441600  0.57901056  0.15041183  1.0
  C  C131  1  0.99670134  0.53870469  0.19118791  1.0
  C  C132  1  0.05297532  0.57274568  0.22867831  1.0
  C  C133  1  0.05590913  0.64522476  0.22856971  1.0
  C  C134  1  0.99179787  0.46114456  0.19086769  1.0
  C  C135  1  0.97030176  0.35768051  0.13534850  1.0
  C  C136  1  0.99205213  0.24190996  0.19397020  1.0
  C  C137  1  0.00824252  0.20948310  0.13337011  1.0
  C  C138  1  0.01292916  0.13707508  0.13132637  1.0
  C  C139  1  0.00190602  0.09387462  0.19056596  1.0
  C  C140  1  0.98117382  0.12333690  0.25041338  1.0
  C  C141  1  0.97491807  0.19602299  0.25114176  1.0
  C  C142  1  0.01765542  0.35108447  0.25598595  1.0
  C  C143  1  0.01679706  0.42096894  0.25463716  1.0
  C  C144  1  0.05032544  0.31525341  0.32146609  1.0
  C  C145  1  0.93665549  0.01082047  0.51971096  1.0
  C  C146  1  0.97094280  0.94537425  0.49513068  1.0
  C  C147  1  0.96837012  0.94288610  0.42328724  1.0
  C  C148  1  0.00193311  0.88963430  0.39054744  1.0
  C  C149  1  0.03792038  0.83480412  0.43041500  1.0
  C  C150  1  0.07947362  0.77842106  0.39654091  1.0
  C  C151  1  0.03423066  0.83215583  0.50368768  1.0
  C  C152  1  0.00213147  0.88872160  0.53807134  1.0
  C  C153  1  0.00114520  0.88872679  0.61550548  1.0
  C  C154  1  0.05573800  0.85587549  0.65912878  1.0
  C  C155  1  0.04801878  0.84947682  0.73027197  1.0
  C  C156  1  0.00006006  0.89179827  0.76475036  1.0
  C  C157  1  0.00170123  0.89078626  0.84165272  1.0
  C  C158  1  0.93262900  0.88729872  0.87862118  1.0
  C  C159  1  0.85241880  0.88360107  0.84786555  1.0
  C  C160  1  0.93473317  0.88907337  0.95031955  1.0
  C  C161  1  0.00301291  0.88945647  0.98861098  1.0
  C  C162  1  0.07293583  0.88924153  0.95500979  1.0
  C  C163  1  0.07228499  0.89188764  0.88135300  1.0
  C  C164  1  0.14883095  0.89426936  0.84620104  1.0
  C  C165  1  0.14808046  0.88675558  0.99458618  1.0
  C  C166  1  0.95279840  0.93360194  0.72076851  1.0
  C  C167  1  0.94590697  0.92313321  0.65022559  1.0
  C  C168  1  0.06612950  0.76727506  0.54313662  1.0
  C  C169  1  0.00214434  0.88682826  0.31456021  1.0
  C  C170  1  0.00212405  0.01662802  0.18746652  1.0
  C  C171  1  0.00279788  0.89226243  0.06459931  1.0
  C  C172  1  0.00281692  0.76246271  0.19169296  1.0
  C  C173  1  0.12458239  0.19362073  0.46155118  1.0
  C  C174  1  0.04717126  0.18665807  0.44858138  1.0
  C  C175  1  0.99689036  0.20850073  0.49689502  1.0
  C  C176  1  0.02670307  0.23645928  0.55553380  1.0
  C  C177  1  0.10519641  0.24111758  0.56359769  1.0
  C  C178  1  0.91381251  0.20046757  0.48319736  1.0
  C  C179  1  0.67427114  0.23533942  0.55238076  1.0
  C  C180  1  0.64332137  0.23908960  0.48539653  1.0
  C  C181  1  0.56516265  0.23304702  0.47539605  1.0
  C  C182  1  0.54658965  0.22256713  0.59154147  1.0
  C  C183  1  0.62401193  0.22765157  0.60648526  1.0
  C  C184  1  0.33603997  0.01821618  0.52159367  1.0
  C  C185  1  0.28120338  0.98456447  0.48246988  1.0
  C  C186  1  0.27741600  0.91201056  0.48341183  1.0
  C  C187  1  0.32970134  0.87170469  0.52418791  1.0
  C  C188  1  0.38597532  0.90574568  0.56167831  1.0
  C  C189  1  0.38890913  0.97822476  0.56156971  1.0
  C  C190  1  0.32479787  0.79414456  0.52386769  1.0
  C  C191  1  0.30330176  0.69068051  0.46834850  1.0
  C  C192  1  0.32505213  0.57490996  0.52697020  1.0
  C  C193  1  0.34124252  0.54248310  0.46637011  1.0
  C  C194  1  0.34592916  0.47007508  0.46432637  1.0
  C  C195  1  0.33490602  0.42687462  0.52356596  1.0
  C  C196  1  0.31417382  0.45633690  0.58341338  1.0
  C  C197  1  0.30791807  0.52902299  0.58414176  1.0
  C  C198  1  0.35065542  0.68408447  0.58898595  1.0
  C  C199  1  0.34979706  0.75396894  0.58763716  1.0
  C  C200  1  0.38332544  0.64825341  0.65446609  1.0
  C  C201  1  0.26965549  0.34382047  0.85271096  1.0
  C  C202  1  0.30394280  0.27837425  0.82813068  1.0
  C  C203  1  0.30137012  0.27588610  0.75628724  1.0
  C  C204  1  0.33493311  0.22263430  0.72354744  1.0
  C  C205  1  0.37092038  0.16780412  0.76341500  1.0
  C  C206  1  0.41247362  0.11142106  0.72954091  1.0
  C  C207  1  0.36723066  0.16515583  0.83668768  1.0
  C  C208  1  0.33513147  0.22172160  0.87107134  1.0
  C  C209  1  0.33414520  0.22172679  0.94850548  1.0
  C  C210  1  0.38873800  0.18887549  0.99212878  1.0
  C  C211  1  0.38101878  0.18247682  0.06327197  1.0
  C  C212  1  0.33306006  0.22479827  0.09775036  1.0
  C  C213  1  0.33470123  0.22378626  0.17465272  1.0
  C  C214  1  0.26562900  0.22029872  0.21162118  1.0
  C  C215  1  0.18541880  0.21660107  0.18086555  1.0
  C  C216  1  0.26773317  0.22207337  0.28331955  1.0
  C  C217  1  0.33601291  0.22245647  0.32161098  1.0
  C  C218  1  0.40593583  0.22224153  0.28800979  1.0
  C  C219  1  0.40528499  0.22488764  0.21435300  1.0
  C  C220  1  0.48183095  0.22726936  0.17920104  1.0
  C  C221  1  0.48108046  0.21975558  0.32758618  1.0
  C  C222  1  0.28579840  0.26660194  0.05376851  1.0
  C  C223  1  0.27890697  0.25613321  0.98322559  1.0
  C  C224  1  0.39912950  0.10027506  0.87613662  1.0
  C  C225  1  0.33514434  0.21982826  0.64756021  1.0
  C  C226  1  0.33512405  0.34962802  0.52046652  1.0
  C  C227  1  0.33579788  0.22526243  0.39759931  1.0
  C  C228  1  0.33581692  0.09546271  0.52469296  1.0
  C  C229  1  0.45758239  0.52662073  0.79455118  1.0
  C  C230  1  0.38017126  0.51965807  0.78158138  1.0
  C  C231  1  0.32989036  0.54150073  0.82989502  1.0
  C  C232  1  0.35970307  0.56945928  0.88853380  1.0
  C  C233  1  0.43819641  0.57411758  0.89659769  1.0
  C  C234  1  0.24681251  0.53346757  0.81619736  1.0
  C  C235  1  0.00727114  0.56833942  0.88538076  1.0
  C  C236  1  0.97632137  0.57208960  0.81839653  1.0
  C  C237  1  0.89816265  0.56604702  0.80839605  1.0
  C  C238  1  0.87958965  0.55556713  0.92454147  1.0
  C  C239  1  0.95701193  0.56065157  0.93948526  1.0
  C  C240  1  0.66903997  0.35121618  0.85459367  1.0
  C  C241  1  0.61420338  0.31756447  0.81546988  1.0
  C  C242  1  0.61041600  0.24501056  0.81641183  1.0
  C  C243  1  0.66270134  0.20470469  0.85718791  1.0
  C  C244  1  0.71897532  0.23874568  0.89467831  1.0
  C  C245  1  0.72190913  0.31122476  0.89456971  1.0
  C  C246  1  0.65779787  0.12714456  0.85686769  1.0
  C  C247  1  0.63630176  0.02368051  0.80134850  1.0
  C  C248  1  0.65805213  0.90790996  0.85997020  1.0
  C  C249  1  0.67424252  0.87548310  0.79937011  1.0
  C  C250  1  0.67892916  0.80307508  0.79732637  1.0
  C  C251  1  0.66790602  0.75987462  0.85656596  1.0
  C  C252  1  0.64717382  0.78933690  0.91641338  1.0
  C  C253  1  0.64091807  0.86202299  0.91714176  1.0
  C  C254  1  0.68365542  0.01708447  0.92198595  1.0
  C  C255  1  0.68279706  0.08696894  0.92063716  1.0
  C  C256  1  0.71632544  0.98125341  0.98746609  1.0
  C  C257  1  0.60265549  0.67682047  0.18571096  1.0
  C  C258  1  0.63694280  0.61137425  0.16113068  1.0
  C  C259  1  0.63437012  0.60888610  0.08928724  1.0
  C  C260  1  0.66793311  0.55563430  0.05654744  1.0
  C  C261  1  0.70392038  0.50080412  0.09641500  1.0
  C  C262  1  0.74547362  0.44442106  0.06254091  1.0
  C  C263  1  0.70023066  0.49815583  0.16968768  1.0
  C  C264  1  0.66813147  0.55472160  0.20407134  1.0
  C  C265  1  0.66714520  0.55472679  0.28150548  1.0
  C  C266  1  0.72173800  0.52187549  0.32512878  1.0
  C  C267  1  0.71401878  0.51547682  0.39627197  1.0
  C  C268  1  0.66606006  0.55779827  0.43075036  1.0
  C  C269  1  0.66770123  0.55678626  0.50765272  1.0
  C  C270  1  0.59862900  0.55329872  0.54462118  1.0
  C  C271  1  0.51841880  0.54960107  0.51386555  1.0
  C  C272  1  0.60073317  0.55507337  0.61631955  1.0
  C  C273  1  0.66901291  0.55545647  0.65461098  1.0
  C  C274  1  0.73893583  0.55524153  0.62100979  1.0
  C  C275  1  0.73828499  0.55788764  0.54735300  1.0
  C  C276  1  0.81483095  0.56026936  0.51220104  1.0
  C  C277  1  0.81408046  0.55275558  0.66058618  1.0
  C  C278  1  0.61879840  0.59960194  0.38676851  1.0
  C  C279  1  0.61190697  0.58913321  0.31622559  1.0
  C  C280  1  0.73212950  0.43327506  0.20913662  1.0
  C  C281  1  0.66814434  0.55282826  0.98056021  1.0
  C  C282  1  0.66812405  0.68262802  0.85346652  1.0
  C  C283  1  0.66879788  0.55826243  0.73059931  1.0
  C  C284  1  0.66881692  0.42846271  0.85769296  1.0
  N  N285  1  0.82201702  0.88734334  0.18501848  1.0
  N  N286  1  0.53222460  0.88862137  0.19868922  1.0
  N  N287  1  0.45689297  0.88173394  0.18742454  1.0
  N  N288  1  0.42071497  0.90718267  0.23341620  1.0
  N  N289  1  0.18292269  0.89175437  0.19413516  1.0
  N  N290  1  0.96634577  0.43426260  0.13625822  1.0
  N  N291  1  0.99340922  0.31571520  0.19888691  1.0
  N  N292  1  0.15501702  0.22034334  0.51801848  1.0
  N  N293  1  0.86522460  0.22162137  0.53168922  1.0
  N  N294  1  0.78989297  0.21473394  0.52042454  1.0
  N  N295  1  0.75371497  0.24018267  0.56641620  1.0
  N  N296  1  0.51592269  0.22475437  0.52713516  1.0
  N  N297  1  0.29934577  0.76726260  0.46925822  1.0
  N  N298  1  0.32640922  0.64871520  0.53188691  1.0
  N  N299  1  0.48801702  0.55334334  0.85101848  1.0
  N  N300  1  0.19822460  0.55462137  0.86468922  1.0
  N  N301  1  0.12289297  0.54773394  0.85342454  1.0
  N  N302  1  0.08671497  0.57318267  0.89941620  1.0
  N  N303  1  0.84892269  0.55775437  0.86013516  1.0
  N  N304  1  0.63234577  0.10026260  0.80225822  1.0
  N  N305  1  0.65940922  0.98171520  0.86488691  1.0
  Cl  Cl306  1  0.90446588  0.00565332  0.74550461  1.0
  Cl  Cl307  1  0.23746588  0.33865332  0.07850461  1.0
  Cl  Cl308  1  0.57046588  0.67165332  0.41150461  1.0
  O  O309  1  0.55949961  0.84276290  0.09657489  1.0
  O  O310  1  0.06612716  0.89397578  0.09170257  1.0
  O  O311  1  0.06561668  0.88666431  0.29065855  1.0
  O  O312  1  0.06559903  0.99147871  0.18802896  1.0
  O  O313  1  0.06614357  0.78916129  0.19433091  1.0
  O  O314  1  0.93879615  0.98993082  0.18482739  1.0
  O  O315  1  0.93881255  0.88511635  0.28745695  1.0
  O  O316  1  0.93932303  0.89242783  0.08850097  1.0
  O  O317  1  0.93934069  0.78761340  0.19112933  1.0
  O  O318  1  0.89249961  0.17576290  0.42957489  1.0
  O  O319  1  0.39912716  0.22697578  0.42470257  1.0
  O  O320  1  0.39861668  0.21966431  0.62365855  1.0
  O  O321  1  0.39859903  0.32447871  0.52102896  1.0
  O  O322  1  0.39914357  0.12216129  0.52733091  1.0
  O  O323  1  0.27179615  0.32293082  0.51782739  1.0
  O  O324  1  0.27181255  0.21811635  0.62045695  1.0
  O  O325  1  0.27232303  0.22542783  0.42150097  1.0
  O  O326  1  0.27234069  0.12061340  0.52412933  1.0
  O  O327  1  0.22549961  0.50876290  0.76257489  1.0
  O  O328  1  0.73212716  0.55997578  0.75770257  1.0
  O  O329  1  0.73161668  0.55266431  0.95665855  1.0
  O  O330  1  0.73159903  0.65747871  0.85402896  1.0
  O  O331  1  0.73214357  0.45516129  0.86033091  1.0
  O  O332  1  0.60479615  0.65593082  0.85082739  1.0
  O  O333  1  0.60481255  0.55111635  0.95345695  1.0
  O  O334  1  0.60532303  0.55842783  0.75450097  1.0
  O  O335  1  0.60534069  0.45361340  0.85712933  1.0
  F  F336  1  0.83974977  0.83957949  0.08238989  1.0
  F  F337  1  0.64852750  0.92565644  0.27061122  1.0
  F  F338  1  0.80138443  0.93495558  0.28722897  1.0
  F  F339  1  0.31676943  0.89225548  0.33886995  1.0
  F  F340  1  0.16498932  0.88178891  0.31042545  1.0
  F  F341  1  0.10760225  0.53703370  0.26489777  1.0
  F  F342  1  0.02190885  0.24689542  0.07434056  1.0
  F  F343  1  0.89815282  0.68895323  0.10939680  1.0
  F  F344  1  0.09058907  0.80043666  0.76448952  1.0
  F  F345  1  0.17274977  0.17257949  0.41538989  1.0
  F  F346  1  0.98152750  0.25865644  0.60361122  1.0
  F  F347  1  0.13438443  0.26795558  0.62022897  1.0
  F  F348  1  0.64976943  0.22525548  0.67186995  1.0
  F  F349  1  0.49798932  0.21478891  0.64342545  1.0
  F  F350  1  0.44060225  0.87003370  0.59789777  1.0
  F  F351  1  0.35490885  0.57989542  0.40734056  1.0
  F  F352  1  0.23115282  0.02195323  0.44239680  1.0
  F  F353  1  0.42358907  0.13343666  0.09748952  1.0
  F  F354  1  0.50574977  0.50557949  0.74838989  1.0
  F  F355  1  0.31452750  0.59165644  0.93661122  1.0
  F  F356  1  0.46738443  0.60095558  0.95322897  1.0
  F  F357  1  0.98276943  0.55825548  0.00486995  1.0
  F  F358  1  0.83098932  0.54778891  0.97642545  1.0
  F  F359  1  0.77360225  0.20303370  0.93089777  1.0
  F  F360  1  0.68790885  0.91289542  0.74034056  1.0
  F  F361  1  0.56415282  0.35495323  0.77539680  1.0
  F  F362  1  0.75658907  0.46643666  0.43048952  1.0
