# generated using pymatgen
data_Cu2H34C56N6Cl3O11F9
_symmetry_space_group_name_H-M   'P 1'
_cell_length_a   17.69185530
_cell_length_b   19.47804634
_cell_length_c   19.11352956
_cell_angle_alpha   85.50516611
_cell_angle_beta   91.62328260
_cell_angle_gamma   86.04791418
_symmetry_Int_Tables_number   1
_chemical_formula_structural   Cu2H34C56N6Cl3O11F9
_chemical_formula_sum   'Cu2 H34 C56 N6 Cl3 O11 F9'
_cell_volume   6546.93501727
_cell_formula_units_Z   1
loop_
 _symmetry_equiv_pos_site_id
 _symmetry_equiv_pos_as_xyz
  1  'x, y, z'
loop_
 _atom_site_type_symbol
 _atom_site_label
 _atom_site_symmetry_multiplicity
 _atom_site_fract_x
 _atom_site_fract_y
 _atom_site_fract_z
 _atom_site_occupancy
  Cu  Cu0  1  0.92982393  0.89481554  0.16963990  1.0
  Cu  Cu1  1  0.07893456  0.88474962  0.17506854  1.0
  H  H2  1  0.79061986  0.07224008  0.13155110  1.0
  H  H3  1  0.84123184  0.01919357  0.07433944  1.0
  H  H4  1  0.87621830  0.02591753  0.16151649  1.0
  H  H5  1  0.67252405  0.01602410  0.14779590  1.0
  H  H6  1  0.63836335  0.81219894  0.29379954  1.0
  H  H7  1  0.73309967  0.78507994  0.31143544  1.0
  H  H8  1  0.68152833  0.74849135  0.24352418  1.0
  H  H9  1  0.80617892  0.73492984  0.21123041  1.0
  H  H10  1  0.88866081  0.77899660  0.22870651  1.0
  H  H11  1  0.85493959  0.77224530  0.14091066  1.0
  H  H12  1  0.48689748  0.78955296  0.07603050  1.0
  H  H13  1  0.55553161  0.79294466  0.01167062  1.0
  H  H14  1  0.47732023  0.85558699  0.00434580  1.0
  H  H15  1  0.16008437  0.94958832  0.09595971  1.0
  H  H16  1  0.24831824  0.99967366  0.02116073  1.0
  H  H17  1  0.32855237  0.94403018  0.00678142  1.0
  H  H18  1  0.33581217  0.01202443  0.06373359  1.0
  H  H19  1  0.24908011  0.75663861  0.30422500  1.0
  H  H20  1  0.16497916  0.75975149  0.25213563  1.0
  H  H21  1  0.17763995  0.82326206  0.31255819  1.0
  H  H22  1  0.43058553  0.79750407  0.23772719  1.0
  H  H23  1  0.36094178  0.73778509  0.24372697  1.0
  H  H24  1  0.36589021  0.80207356  0.30518504  1.0
  H  H25  1  0.88853923  0.55832760  0.20428893  1.0
  H  H26  1  0.89623825  0.33250764  0.13605396  1.0
  H  H27  1  0.08205644  0.08678833  0.26222727  1.0
  H  H28  1  0.08465131  0.21108238  0.26479601  1.0
  H  H29  1  0.12216918  0.44608318  0.20953780  1.0
  H  H30  1  0.11571447  0.89146422  0.82470897  1.0
  H  H31  1  0.88320509  0.88564787  0.96397346  1.0
  H  H32  1  0.87511883  0.88702191  0.73048184  1.0
  H  H33  1  0.02531387  0.85629420  0.62501708  1.0
  H  H34  1  0.07478607  0.79537013  0.40034876  1.0
  H  H35  1  0.91332366  0.97956497  0.50172980  1.0
  C  C36  1  0.82487952  0.02359394  0.12850094  1.0
  C  C37  1  0.78333959  0.96261992  0.15414889  1.0
  C  C38  1  0.70554404  0.96813670  0.16379311  1.0
  C  C39  1  0.67104155  0.91098390  0.19395307  1.0
  C  C40  1  0.71687670  0.85124671  0.21744284  1.0
  C  C41  1  0.69038315  0.79593281  0.26836849  1.0
  C  C42  1  0.79140424  0.84677526  0.19475189  1.0
  C  C43  1  0.83785487  0.77927286  0.19475318  1.0
  C  C44  1  0.58732793  0.91493134  0.19936110  1.0
  C  C45  1  0.53532626  0.89645466  0.15185604  1.0
  C  C46  1  0.56218248  0.87300508  0.08181744  1.0
  C  C47  1  0.51685400  0.82493544  0.04150893  1.0
  C  C48  1  0.33684661  0.88347746  0.14762833  1.0
  C  C49  1  0.31578763  0.83876700  0.20502571  1.0
  C  C50  1  0.23765650  0.83775165  0.21795901  1.0
  C  C51  1  0.20622762  0.91955161  0.12571486  1.0
  C  C52  1  0.28066809  0.92486157  0.10780497  1.0
  C  C53  1  0.29973812  0.97268193  0.04647886  1.0
  C  C54  1  0.20646389  0.79166718  0.27513994  1.0
  C  C55  1  0.37147282  0.79173706  0.24990633  1.0
  C  C56  1  0.00385944  0.68811768  0.17285267  1.0
  C  C57  1  0.93952263  0.65344366  0.18766003  1.0
  C  C58  1  0.94049783  0.58150714  0.18939213  1.0
  C  C59  1  0.00529912  0.54108469  0.17222481  1.0
  C  C60  1  0.06998884  0.57746274  0.15757634  1.0
  C  C61  1  0.06974034  0.64919379  0.15903308  1.0
  C  C62  1  0.00562666  0.46449692  0.17058283  1.0
  C  C63  1  0.94397345  0.42898188  0.14791566  1.0
  C  C64  1  0.94751625  0.35636512  0.15131256  1.0
  C  C65  1  0.01387240  0.31438623  0.17128670  1.0
  C  C66  1  0.01252191  0.23784435  0.17095292  1.0
  C  C67  1  0.96932190  0.20703666  0.12045140  1.0
  C  C68  1  0.96464833  0.13571277  0.12155766  1.0
  C  C69  1  0.00490531  0.09144566  0.17185593  1.0
  C  C70  1  0.04928511  0.12014409  0.22215598  1.0
  C  C71  1  0.05155813  0.19203378  0.22245620  1.0
  C  C72  1  0.07704465  0.35002659  0.18963919  1.0
  C  C73  1  0.07165377  0.42244359  0.19179253  1.0
  C  C74  1  0.00554179  0.88939487  0.96691262  1.0
  C  C75  1  0.06980174  0.89086243  0.92667327  1.0
  C  C76  1  0.06378096  0.89009945  0.85413144  1.0
  C  C77  1  0.99280333  0.88723939  0.82029733  1.0
  C  C78  1  0.92834055  0.88557891  0.86031502  1.0
  C  C79  1  0.93433429  0.88689372  0.93335524  1.0
  C  C80  1  0.99253615  0.88535069  0.74265474  1.0
  C  C81  1  0.91526820  0.88903024  0.63288986  1.0
  C  C82  1  0.98525633  0.88538225  0.52351610  1.0
  C  C83  1  0.03204064  0.83538466  0.49391834  1.0
  C  C84  1  0.03993061  0.83637788  0.42168311  1.0
  C  C85  1  0.00322292  0.89016847  0.37779479  1.0
  C  C86  1  0.95806496  0.94101451  0.40780336  1.0
  C  C87  1  0.94776235  0.93855192  0.48006915  1.0
  C  C88  1  0.00365362  0.88728602  0.30013677  1.0
  C  C89  1  0.00471972  0.01520289  0.16925700  1.0
  C  C90  1  0.00510737  0.89227753  0.04457171  1.0
  C  C91  1  0.00404002  0.76436080  0.17545142  1.0
  N  N92  1  0.82494847  0.90189542  0.16581633  1.0
  N  N93  1  0.45918497  0.89996504  0.16811646  1.0
  N  N94  1  0.41211193  0.88337876  0.12405849  1.0
  N  N95  1  0.18381006  0.87767524  0.17888610  1.0
  N  N96  1  0.92491272  0.88454895  0.70515775  1.0
  N  N97  1  0.98108042  0.88248033  0.59684847  1.0
  Cl  Cl98  1  0.55761707  0.94675717  0.27814508  1.0
  Cl  Cl99  1  0.16713440  0.31018704  0.20652670  1.0
  Cl  Cl100  1  0.86087920  0.46960260  0.10950651  1.0
  O  O101  1  0.61945030  0.89453982  0.05487795  1.0
  O  O102  1  0.05451118  0.88223270  0.71465372  1.0
  O  O103  1  0.85131093  0.89776856  0.60570445  1.0
  O  O104  1  0.06800391  0.88898693  0.07293014  1.0
  O  O105  1  0.06684053  0.88206664  0.27636878  1.0
  O  O106  1  0.06770015  0.98536070  0.17068188  1.0
  O  O107  1  0.06714305  0.78569288  0.17861575  1.0
  O  O108  1  0.94161545  0.99387226  0.16609144  1.0
  O  O109  1  0.94075458  0.89057823  0.27177830  1.0
  O  O110  1  0.94191797  0.89749852  0.06833966  1.0
  O  O111  1  0.94105835  0.79420444  0.17402531  1.0
  F  F112  1  0.87406444  0.68875055  0.19976934  1.0
  F  F113  1  0.13418629  0.67925535  0.14516574  1.0
  F  F114  1  0.13482128  0.54351014  0.14096264  1.0
  F  F115  1  0.93000500  0.24621885  0.06900418  1.0
  F  F116  1  0.91971554  0.11053455  0.07335218  1.0
  F  F117  1  0.85959648  0.88233400  0.82971041  1.0
  F  F118  1  0.92439996  0.99448477  0.36721973  1.0
  F  F119  1  0.06770727  0.78373389  0.53547702  1.0
  F  F120  1  0.13869490  0.89233140  0.95699088  1.0
  Cu  Cu0  1  0.26282393  0.22781554  0.50263990  1.0
  Cu  Cu1  1  0.41193456  0.21774962  0.50806854  1.0
  H  H2  1  0.12361986  0.40524008  0.46455110  1.0
  H  H3  1  0.17423184  0.35219357  0.40733944  1.0
  H  H4  1  0.20921830  0.35891753  0.49451649  1.0
  H  H5  1  0.00552405  0.34902410  0.48079590  1.0
  H  H6  1  0.97136335  0.14519894  0.62679954  1.0
  H  H7  1  0.06609967  0.11807994  0.64443544  1.0
  H  H8  1  0.01452833  0.08149135  0.57652418  1.0
  H  H9  1  0.13917892  0.06792984  0.54423041  1.0
  H  H10  1  0.22166081  0.11199660  0.56170651  1.0
  H  H11  1  0.18793959  0.10524530  0.47391066  1.0
  H  H12  1  0.81989748  0.12255296  0.40903050  1.0
  H  H13  1  0.88853161  0.12594466  0.34467062  1.0
  H  H14  1  0.81032023  0.18858699  0.33734580  1.0
  H  H15  1  0.49308437  0.28258832  0.42895971  1.0
  H  H16  1  0.58131824  0.33267366  0.35416073  1.0
  H  H17  1  0.66155237  0.27703018  0.33978142  1.0
  H  H18  1  0.66881217  0.34502443  0.39673359  1.0
  H  H19  1  0.58208011  0.08963861  0.63722500  1.0
  H  H20  1  0.49797916  0.09275149  0.58513563  1.0
  H  H21  1  0.51063995  0.15626206  0.64555819  1.0
  H  H22  1  0.76358553  0.13050407  0.57072719  1.0
  H  H23  1  0.69394178  0.07078509  0.57672697  1.0
  H  H24  1  0.69889021  0.13507356  0.63818504  1.0
  H  H25  1  0.22153923  0.89132760  0.53728893  1.0
  H  H26  1  0.22923825  0.66550764  0.46905396  1.0
  H  H27  1  0.41505644  0.41978833  0.59522727  1.0
  H  H28  1  0.41765131  0.54408238  0.59779601  1.0
  H  H29  1  0.45516918  0.77908318  0.54253780  1.0
  H  H30  1  0.44871447  0.22446422  0.15770897  1.0
  H  H31  1  0.21620509  0.21864787  0.29697346  1.0
  H  H32  1  0.20811883  0.22002191  0.06348184  1.0
  H  H33  1  0.35831387  0.18929420  0.95801708  1.0
  H  H34  1  0.40778607  0.12837013  0.73334876  1.0
  H  H35  1  0.24632366  0.31256497  0.83472980  1.0
  C  C36  1  0.15787952  0.35659394  0.46150094  1.0
  C  C37  1  0.11633959  0.29561992  0.48714889  1.0
  C  C38  1  0.03854404  0.30113670  0.49679311  1.0
  C  C39  1  0.00404155  0.24398390  0.52695307  1.0
  C  C40  1  0.04987670  0.18424671  0.55044284  1.0
  C  C41  1  0.02338315  0.12893281  0.60136849  1.0
  C  C42  1  0.12440424  0.17977526  0.52775189  1.0
  C  C43  1  0.17085487  0.11227286  0.52775318  1.0
  C  C44  1  0.92032793  0.24793134  0.53236110  1.0
  C  C45  1  0.86832626  0.22945466  0.48485604  1.0
  C  C46  1  0.89518248  0.20600508  0.41481744  1.0
  C  C47  1  0.84985400  0.15793544  0.37450893  1.0
  C  C48  1  0.66984661  0.21647746  0.48062833  1.0
  C  C49  1  0.64878763  0.17176700  0.53802571  1.0
  C  C50  1  0.57065650  0.17075165  0.55095901  1.0
  C  C51  1  0.53922762  0.25255161  0.45871486  1.0
  C  C52  1  0.61366809  0.25786157  0.44080497  1.0
  C  C53  1  0.63273812  0.30568193  0.37947886  1.0
  C  C54  1  0.53946389  0.12466718  0.60813994  1.0
  C  C55  1  0.70447282  0.12473706  0.58290633  1.0
  C  C56  1  0.33685944  0.02111768  0.50585267  1.0
  C  C57  1  0.27252263  0.98644366  0.52066003  1.0
  C  C58  1  0.27349783  0.91450714  0.52239213  1.0
  C  C59  1  0.33829912  0.87408469  0.50522481  1.0
  C  C60  1  0.40298884  0.91046274  0.49057634  1.0
  C  C61  1  0.40274034  0.98219379  0.49203308  1.0
  C  C62  1  0.33862666  0.79749692  0.50358283  1.0
  C  C63  1  0.27697345  0.76198188  0.48091566  1.0
  C  C64  1  0.28051625  0.68936512  0.48431256  1.0
  C  C65  1  0.34687240  0.64738623  0.50428670  1.0
  C  C66  1  0.34552191  0.57084435  0.50395292  1.0
  C  C67  1  0.30232190  0.54003666  0.45345140  1.0
  C  C68  1  0.29764833  0.46871277  0.45455766  1.0
  C  C69  1  0.33790531  0.42444566  0.50485593  1.0
  C  C70  1  0.38228511  0.45314409  0.55515598  1.0
  C  C71  1  0.38455813  0.52503378  0.55545620  1.0
  C  C72  1  0.41004465  0.68302659  0.52263919  1.0
  C  C73  1  0.40465377  0.75544359  0.52479253  1.0
  C  C74  1  0.33854179  0.22239487  0.29991262  1.0
  C  C75  1  0.40280174  0.22386243  0.25967327  1.0
  C  C76  1  0.39678096  0.22309945  0.18713144  1.0
  C  C77  1  0.32580333  0.22023939  0.15329733  1.0
  C  C78  1  0.26134055  0.21857891  0.19331502  1.0
  C  C79  1  0.26733429  0.21989372  0.26635524  1.0
  C  C80  1  0.32553615  0.21835069  0.07565474  1.0
  C  C81  1  0.24826820  0.22203024  0.96588986  1.0
  C  C82  1  0.31825633  0.21838225  0.85651610  1.0
  C  C83  1  0.36504064  0.16838466  0.82691834  1.0
  C  C84  1  0.37293061  0.16937788  0.75468311  1.0
  C  C85  1  0.33622292  0.22316847  0.71079479  1.0
  C  C86  1  0.29106496  0.27401451  0.74080336  1.0
  C  C87  1  0.28076235  0.27155192  0.81306915  1.0
  C  C88  1  0.33665362  0.22028602  0.63313677  1.0
  C  C89  1  0.33771972  0.34820289  0.50225700  1.0
  C  C90  1  0.33810737  0.22527753  0.37757171  1.0
  C  C91  1  0.33704002  0.09736080  0.50845142  1.0
  N  N92  1  0.15794847  0.23489542  0.49881633  1.0
  N  N93  1  0.79218497  0.23296504  0.50111646  1.0
  N  N94  1  0.74511193  0.21637876  0.45705849  1.0
  N  N95  1  0.51681006  0.21067524  0.51188610  1.0
  N  N96  1  0.25791272  0.21754895  0.03815775  1.0
  N  N97  1  0.31408042  0.21548033  0.92984847  1.0
  Cl  Cl98  1  0.89061707  0.27975717  0.61114508  1.0
  Cl  Cl99  1  0.50013440  0.64318704  0.53952670  1.0
  Cl  Cl100  1  0.19387920  0.80260260  0.44250651  1.0
  O  O101  1  0.95245030  0.22753982  0.38787795  1.0
  O  O102  1  0.38751118  0.21523270  0.04765372  1.0
  O  O103  1  0.18431093  0.23076856  0.93870445  1.0
  O  O104  1  0.40100391  0.22198693  0.40593014  1.0
  O  O105  1  0.39984053  0.21506664  0.60936878  1.0
  O  O106  1  0.40070015  0.31836070  0.50368188  1.0
  O  O107  1  0.40014305  0.11869288  0.51161575  1.0
  O  O108  1  0.27461545  0.32687226  0.49909144  1.0
  O  O109  1  0.27375458  0.22357823  0.60477830  1.0
  O  O110  1  0.27491797  0.23049852  0.40133966  1.0
  O  O111  1  0.27405835  0.12720444  0.50702531  1.0
  F  F112  1  0.20706444  0.02175055  0.53276934  1.0
  F  F113  1  0.46718629  0.01225535  0.47816574  1.0
  F  F114  1  0.46782128  0.87651014  0.47396264  1.0
  F  F115  1  0.26300500  0.57921885  0.40200418  1.0
  F  F116  1  0.25271554  0.44353455  0.40635218  1.0
  F  F117  1  0.19259648  0.21533400  0.16271041  1.0
  F  F118  1  0.25739996  0.32748477  0.70021973  1.0
  F  F119  1  0.40070727  0.11673389  0.86847702  1.0
  F  F120  1  0.47169490  0.22533140  0.28999088  1.0
  Cu  Cu0  1  0.59582393  0.56081554  0.83563990  1.0
  Cu  Cu1  1  0.74493456  0.55074962  0.84106854  1.0
  H  H2  1  0.45661986  0.73824008  0.79755110  1.0
  H  H3  1  0.50723184  0.68519357  0.74033944  1.0
  H  H4  1  0.54221830  0.69191753  0.82751649  1.0
  H  H5  1  0.33852405  0.68202410  0.81379590  1.0
  H  H6  1  0.30436335  0.47819894  0.95979954  1.0
  H  H7  1  0.39909967  0.45107994  0.97743544  1.0
  H  H8  1  0.34752833  0.41449135  0.90952418  1.0
  H  H9  1  0.47217892  0.40092984  0.87723041  1.0
  H  H10  1  0.55466081  0.44499660  0.89470651  1.0
  H  H11  1  0.52093959  0.43824530  0.80691066  1.0
  H  H12  1  0.15289748  0.45555296  0.74203050  1.0
  H  H13  1  0.22153161  0.45894466  0.67767062  1.0
  H  H14  1  0.14332023  0.52158699  0.67034580  1.0
  H  H15  1  0.82608437  0.61558832  0.76195971  1.0
  H  H16  1  0.91431824  0.66567366  0.68716073  1.0
  H  H17  1  0.99455237  0.61003018  0.67278142  1.0
  H  H18  1  0.00181217  0.67802443  0.72973359  1.0
  H  H19  1  0.91508011  0.42263861  0.97022500  1.0
  H  H20  1  0.83097916  0.42575149  0.91813563  1.0
  H  H21  1  0.84363995  0.48926206  0.97855819  1.0
  H  H22  1  0.09658553  0.46350407  0.90372719  1.0
  H  H23  1  0.02694178  0.40378509  0.90972697  1.0
  H  H24  1  0.03189021  0.46807356  0.97118504  1.0
  H  H25  1  0.55453923  0.22432760  0.87028893  1.0
  H  H26  1  0.56223825  0.99850764  0.80205396  1.0
  H  H27  1  0.74805644  0.75278833  0.92822727  1.0
  H  H28  1  0.75065131  0.87708238  0.93079601  1.0
  H  H29  1  0.78816918  0.11208318  0.87553780  1.0
  H  H30  1  0.78171447  0.55746422  0.49070897  1.0
  H  H31  1  0.54920509  0.55164787  0.62997346  1.0
  H  H32  1  0.54111883  0.55302191  0.39648184  1.0
  H  H33  1  0.69131387  0.52229420  0.29101708  1.0
  H  H34  1  0.74078607  0.46137013  0.06634876  1.0
  H  H35  1  0.57932366  0.64556497  0.16772980  1.0
  C  C36  1  0.49087952  0.68959394  0.79450094  1.0
  C  C37  1  0.44933959  0.62861992  0.82014889  1.0
  C  C38  1  0.37154404  0.63413670  0.82979311  1.0
  C  C39  1  0.33704155  0.57698390  0.85995307  1.0
  C  C40  1  0.38287670  0.51724671  0.88344284  1.0
  C  C41  1  0.35638315  0.46193281  0.93436849  1.0
  C  C42  1  0.45740424  0.51277526  0.86075189  1.0
  C  C43  1  0.50385487  0.44527286  0.86075318  1.0
  C  C44  1  0.25332793  0.58093134  0.86536110  1.0
  C  C45  1  0.20132626  0.56245466  0.81785604  1.0
  C  C46  1  0.22818248  0.53900508  0.74781744  1.0
  C  C47  1  0.18285400  0.49093544  0.70750893  1.0
  C  C48  1  0.00284661  0.54947746  0.81362833  1.0
  C  C49  1  0.98178763  0.50476700  0.87102571  1.0
  C  C50  1  0.90365650  0.50375165  0.88395901  1.0
  C  C51  1  0.87222762  0.58555161  0.79171486  1.0
  C  C52  1  0.94666809  0.59086157  0.77380497  1.0
  C  C53  1  0.96573812  0.63868193  0.71247886  1.0
  C  C54  1  0.87246389  0.45766718  0.94113994  1.0
  C  C55  1  0.03747282  0.45773706  0.91590633  1.0
  C  C56  1  0.66985944  0.35411768  0.83885267  1.0
  C  C57  1  0.60552263  0.31944366  0.85366003  1.0
  C  C58  1  0.60649783  0.24750714  0.85539213  1.0
  C  C59  1  0.67129912  0.20708469  0.83822481  1.0
  C  C60  1  0.73598884  0.24346274  0.82357634  1.0
  C  C61  1  0.73574034  0.31519379  0.82503308  1.0
  C  C62  1  0.67162666  0.13049692  0.83658283  1.0
  C  C63  1  0.60997345  0.09498188  0.81391566  1.0
  C  C64  1  0.61351625  0.02236512  0.81731256  1.0
  C  C65  1  0.67987240  0.98038623  0.83728670  1.0
  C  C66  1  0.67852191  0.90384435  0.83695292  1.0
  C  C67  1  0.63532190  0.87303666  0.78645140  1.0
  C  C68  1  0.63064833  0.80171277  0.78755766  1.0
  C  C69  1  0.67090531  0.75744566  0.83785593  1.0
  C  C70  1  0.71528511  0.78614409  0.88815598  1.0
  C  C71  1  0.71755813  0.85803378  0.88845620  1.0
  C  C72  1  0.74304465  0.01602659  0.85563919  1.0
  C  C73  1  0.73765377  0.08844359  0.85779253  1.0
  C  C74  1  0.67154179  0.55539487  0.63291262  1.0
  C  C75  1  0.73580174  0.55686243  0.59267327  1.0
  C  C76  1  0.72978096  0.55609945  0.52013144  1.0
  C  C77  1  0.65880333  0.55323939  0.48629733  1.0
  C  C78  1  0.59434055  0.55157891  0.52631502  1.0
  C  C79  1  0.60033429  0.55289372  0.59935524  1.0
  C  C80  1  0.65853615  0.55135069  0.40865474  1.0
  C  C81  1  0.58126820  0.55503024  0.29888986  1.0
  C  C82  1  0.65125633  0.55138225  0.18951610  1.0
  C  C83  1  0.69804064  0.50138466  0.15991834  1.0
  C  C84  1  0.70593061  0.50237788  0.08768311  1.0
  C  C85  1  0.66922292  0.55616847  0.04379479  1.0
  C  C86  1  0.62406496  0.60701451  0.07380336  1.0
  C  C87  1  0.61376235  0.60455192  0.14606915  1.0
  C  C88  1  0.66965362  0.55328602  0.96613677  1.0
  C  C89  1  0.67071972  0.68120289  0.83525700  1.0
  C  C90  1  0.67110737  0.55827753  0.71057171  1.0
  C  C91  1  0.67004002  0.43036080  0.84145142  1.0
  N  N92  1  0.49094847  0.56789542  0.83181633  1.0
  N  N93  1  0.12518497  0.56596504  0.83411646  1.0
  N  N94  1  0.07811193  0.54937876  0.79005849  1.0
  N  N95  1  0.84981006  0.54367524  0.84488610  1.0
  N  N96  1  0.59091272  0.55054895  0.37115775  1.0
  N  N97  1  0.64708042  0.54848033  0.26284847  1.0
  Cl  Cl98  1  0.22361707  0.61275717  0.94414508  1.0
  Cl  Cl99  1  0.83313440  0.97618704  0.87252670  1.0
  Cl  Cl100  1  0.52687920  0.13560260  0.77550651  1.0
  O  O101  1  0.28545030  0.56053982  0.72087795  1.0
  O  O102  1  0.72051118  0.54823270  0.38065372  1.0
  O  O103  1  0.51731093  0.56376856  0.27170445  1.0
  O  O104  1  0.73400391  0.55498693  0.73893014  1.0
  O  O105  1  0.73284053  0.54806664  0.94236878  1.0
  O  O106  1  0.73370015  0.65136070  0.83668188  1.0
  O  O107  1  0.73314305  0.45169288  0.84461575  1.0
  O  O108  1  0.60761545  0.65987226  0.83209144  1.0
  O  O109  1  0.60675458  0.55657823  0.93777830  1.0
  O  O110  1  0.60791797  0.56349852  0.73433966  1.0
  O  O111  1  0.60705835  0.46020444  0.84002531  1.0
  F  F112  1  0.54006444  0.35475055  0.86576934  1.0
  F  F113  1  0.80018629  0.34525535  0.81116574  1.0
  F  F114  1  0.80082128  0.20951014  0.80696264  1.0
  F  F115  1  0.59600500  0.91221885  0.73500418  1.0
  F  F116  1  0.58571554  0.77653455  0.73935218  1.0
  F  F117  1  0.52559648  0.54833400  0.49571041  1.0
  F  F118  1  0.59039996  0.66048477  0.03321973  1.0
  F  F119  1  0.73370727  0.44973389  0.20147702  1.0
  F  F120  1  0.80469490  0.55833140  0.62299088  1.0
