# generated using pymatgen
data_Zn2H28C59N3Cl4O8F11
_symmetry_space_group_name_H-M   'P 1'
_cell_length_a   18.50816020
_cell_length_b   19.46521144
_cell_length_c   19.52307593
_cell_angle_alpha   85.71691104
_cell_angle_beta   90.01918414
_cell_angle_gamma   90.25948963
_symmetry_Int_Tables_number   1
_chemical_formula_structural   Zn2H28C59N3Cl4O8F11
_chemical_formula_sum   'Zn6 H84 C177 N9 Cl12 O24 F33'
_cell_volume   7013.77095491
_cell_formula_units_Z   3
loop_
 _symmetry_equiv_pos_site_id
 _symmetry_equiv_pos_as_xyz
  1  'x, y, z'
loop_
 _atom_site_type_symbol
 _atom_site_label
 _atom_site_symmetry_multiplicity
 _atom_site_fract_x
 _atom_site_fract_y
 _atom_site_fract_z
 _atom_site_occupancy
  Zn  Zn0  1  0.79019938  0.75146004  0.24435001  1.0
  Zn  Zn1  1  0.94852996  0.75164865  0.24422528  1.0
  Zn  Zn2  1  0.12319938  0.08446004  0.57735001  1.0
  Zn  Zn3  1  0.28152996  0.08464865  0.57722528  1.0
  Zn  Zn4  1  0.45619938  0.41746004  0.91035001  1.0
  Zn  Zn5  1  0.61452996  0.41764865  0.91022528  1.0
  H  H6  1  0.67598206  0.85712063  0.24869916  1.0
  H  H7  1  0.43239925  0.65875833  0.31030480  1.0
  H  H8  1  0.30220987  0.66171751  0.30961898  1.0
  H  H9  1  0.06602983  0.64673882  0.23768418  1.0
  H  H10  1  0.43895245  0.84624223  0.17858470  1.0
  H  H11  1  0.84042451  0.04656617  0.41313512  1.0
  H  H12  1  0.87201791  0.12828030  0.38340822  1.0
  H  H13  1  0.77907710  0.10382851  0.37143225  1.0
  H  H14  1  0.82885041  0.95759255  0.34701552  1.0
  H  H15  1  0.92945727  0.90186749  0.13308817  1.0
  H  H16  1  0.87879907  0.96243376  0.08117389  1.0
  H  H17  1  0.97045024  0.97918598  0.10453709  1.0
  H  H18  1  0.97163577  0.19746092  0.18286335  1.0
  H  H19  1  0.96451644  0.32064815  0.17336434  1.0
  H  H20  1  0.98483332  0.42037819  0.21762623  1.0
  H  H21  1  0.98311653  0.54464955  0.22127008  1.0
  H  H22  1  0.75594273  0.53654889  0.27084671  1.0
  H  H23  1  0.75634011  0.41223780  0.26478908  1.0
  H  H24  1  0.77952244  0.30888905  0.30798146  1.0
  H  H25  1  0.77369584  0.18751988  0.29911988  1.0
  H  H26  1  0.89871508  0.07494302  0.06966749  1.0
  H  H27  1  0.87115664  0.14956831  0.10461114  1.0
  H  H28  1  0.96376783  0.12197273  0.11216957  1.0
  H  H29  1  0.98609048  0.74500473  0.57985560  1.0
  H  H30  1  0.98456807  0.73574861  0.45647730  1.0
  H  H31  1  0.75523997  0.77457262  0.45383968  1.0
  H  H32  1  0.76450003  0.84272191  0.62329560  1.0
  H  H33  1  0.74207608  0.86814018  0.70010971  1.0
  H  H34  1  0.00898206  0.19012063  0.58169916  1.0
  H  H35  1  0.76539925  0.99175833  0.64330480  1.0
  H  H36  1  0.63520987  0.99471751  0.64261898  1.0
  H  H37  1  0.39902983  0.97973882  0.57068418  1.0
  H  H38  1  0.77195245  0.17924223  0.51158470  1.0
  H  H39  1  0.17342451  0.37956617  0.74613512  1.0
  H  H40  1  0.20501791  0.46128030  0.71640822  1.0
  H  H41  1  0.11207710  0.43682851  0.70443225  1.0
  H  H42  1  0.16185041  0.29059255  0.68001552  1.0
  H  H43  1  0.26245727  0.23486749  0.46608817  1.0
  H  H44  1  0.21179907  0.29543376  0.41417389  1.0
  H  H45  1  0.30345024  0.31218598  0.43753709  1.0
  H  H46  1  0.30463577  0.53046092  0.51586335  1.0
  H  H47  1  0.29751644  0.65364815  0.50636434  1.0
  H  H48  1  0.31783332  0.75337819  0.55062623  1.0
  H  H49  1  0.31611653  0.87764955  0.55427008  1.0
  H  H50  1  0.08894273  0.86954889  0.60384671  1.0
  H  H51  1  0.08934011  0.74523780  0.59778908  1.0
  H  H52  1  0.11252244  0.64188905  0.64098146  1.0
  H  H53  1  0.10669584  0.52051988  0.63211988  1.0
  H  H54  1  0.23171508  0.40794302  0.40266749  1.0
  H  H55  1  0.20415664  0.48256831  0.43761114  1.0
  H  H56  1  0.29676783  0.45497273  0.44516957  1.0
  H  H57  1  0.31909048  0.07800473  0.91285560  1.0
  H  H58  1  0.31756807  0.06874861  0.78947730  1.0
  H  H59  1  0.08823997  0.10757262  0.78683968  1.0
  H  H60  1  0.09750003  0.17572191  0.95629560  1.0
  H  H61  1  0.07507608  0.20114018  0.03310971  1.0
  H  H62  1  0.34198206  0.52312063  0.91469916  1.0
  H  H63  1  0.09839925  0.32475833  0.97630480  1.0
  H  H64  1  0.96820987  0.32771751  0.97561898  1.0
  H  H65  1  0.73202983  0.31273882  0.90368418  1.0
  H  H66  1  0.10495245  0.51224223  0.84458470  1.0
  H  H67  1  0.50642451  0.71256617  0.07913512  1.0
  H  H68  1  0.53801791  0.79428030  0.04940822  1.0
  H  H69  1  0.44507710  0.76982851  0.03743225  1.0
  H  H70  1  0.49485041  0.62359255  0.01301552  1.0
  H  H71  1  0.59545727  0.56786749  0.79908817  1.0
  H  H72  1  0.54479907  0.62843376  0.74717389  1.0
  H  H73  1  0.63645024  0.64518598  0.77053709  1.0
  H  H74  1  0.63763577  0.86346092  0.84886335  1.0
  H  H75  1  0.63051644  0.98664815  0.83936434  1.0
  H  H76  1  0.65083332  0.08637819  0.88362623  1.0
  H  H77  1  0.64911653  0.21064955  0.88727008  1.0
  H  H78  1  0.42194273  0.20254889  0.93684671  1.0
  H  H79  1  0.42234011  0.07823780  0.93078908  1.0
  H  H80  1  0.44552244  0.97488905  0.97398146  1.0
  H  H81  1  0.43969584  0.85351988  0.96511988  1.0
  H  H82  1  0.56471508  0.74094302  0.73566749  1.0
  H  H83  1  0.53715664  0.81556831  0.77061114  1.0
  H  H84  1  0.62976783  0.78797273  0.77816957  1.0
  H  H85  1  0.65209048  0.41100473  0.24585560  1.0
  H  H86  1  0.65056807  0.40174861  0.12247730  1.0
  H  H87  1  0.42123997  0.44057262  0.11983968  1.0
  H  H88  1  0.43050003  0.50872191  0.28929560  1.0
  H  H89  1  0.40807608  0.53414018  0.36610971  1.0
  C  C90  1  0.56912987  0.81286679  0.24868979  1.0
  C  C91  1  0.52799995  0.75236236  0.24618040  1.0
  C  C92  1  0.56733955  0.69130796  0.24301605  1.0
  C  C93  1  0.64257379  0.69318223  0.24259821  1.0
  C  C94  1  0.64428641  0.81012397  0.24749470  1.0
  C  C95  1  0.44793082  0.75324839  0.24569399  1.0
  C  C96  1  0.40648628  0.70177959  0.28114008  1.0
  C  C97  1  0.33053761  0.70353069  0.28048543  1.0
  C  C98  1  0.29154437  0.75603913  0.24332549  1.0
  C  C99  1  0.21112270  0.75490911  0.24455030  1.0
  C  C100  1  0.17159352  0.69377822  0.23966756  1.0
  C  C101  1  0.09644655  0.69434642  0.24029076  1.0
  C  C102  1  0.09448125  0.81057429  0.24972977  1.0
  C  C103  1  0.16959054  0.81402944  0.25204380  1.0
  C  C104  1  0.33354122  0.80629195  0.20560341  1.0
  C  C105  1  0.40958241  0.80543939  0.20814081  1.0
  C  C106  1  0.83529615  0.08683368  0.37105336  1.0
  C  C107  1  0.85398077  0.05944409  0.30278675  1.0
  C  C108  1  0.84963107  0.98736406  0.30174454  1.0
  C  C109  1  0.87007995  0.95333729  0.24443973  1.0
  C  C110  1  0.89292395  0.99189725  0.18456588  1.0
  C  C111  1  0.91875017  0.95674398  0.12250727  1.0
  C  C112  1  0.89051841  0.06575297  0.18209916  1.0
  C  C113  1  0.87284892  0.10118713  0.24214257  1.0
  C  C114  1  0.87291870  0.17865855  0.24132077  1.0
  C  C115  1  0.92638342  0.22028918  0.20813130  1.0
  C  C116  1  0.92394446  0.29277087  0.20474294  1.0
  C  C117  1  0.87177789  0.32791502  0.24033134  1.0
  C  C118  1  0.87076241  0.40426389  0.24051738  1.0
  C  C119  1  0.93337460  0.44454933  0.22767190  1.0
  C  C120  1  0.93283874  0.51633793  0.22945226  1.0
  C  C121  1  0.86865629  0.54977171  0.24413589  1.0
  C  C122  1  0.80599406  0.51124101  0.25788209  1.0
  C  C123  1  0.80702430  0.43978134  0.25511274  1.0
  C  C124  1  0.82041246  0.28651209  0.27648378  1.0
  C  C125  1  0.81891715  0.21457031  0.27388446  1.0
  C  C126  1  0.90718418  0.10543817  0.11380986  1.0
  C  C127  1  0.86914219  0.75115483  0.04312370  1.0
  C  C128  1  0.87869834  0.69020315  0.01151090  1.0
  C  C129  1  0.87387073  0.68932934  0.93996272  1.0
  C  C130  1  0.86607582  0.74997655  0.89670804  1.0
  C  C131  1  0.85825547  0.81078004  0.93047365  1.0
  C  C132  1  0.85625908  0.81085997  0.00183090  1.0
  C  C133  1  0.86690534  0.75036022  0.81999796  1.0
  C  C134  1  0.91863630  0.71388414  0.78393099  1.0
  C  C135  1  0.91475791  0.70963841  0.71155530  1.0
  C  C136  1  0.86844206  0.75282203  0.66932499  1.0
  C  C137  1  0.86940047  0.75408932  0.59194326  1.0
  C  C138  1  0.93376201  0.74812232  0.55427612  1.0
  C  C139  1  0.93378194  0.74437669  0.48272640  1.0
  C  C140  1  0.86959407  0.75195421  0.44545190  1.0
  C  C141  1  0.80585133  0.76325698  0.48027317  1.0
  C  C142  1  0.80612104  0.76109060  0.55192033  1.0
  C  C143  1  0.81985026  0.79399257  0.70494771  1.0
  C  C144  1  0.81644129  0.78812762  0.77830281  1.0
  C  C145  1  0.86949739  0.74906566  0.36940120  1.0
  C  C146  1  0.86923369  0.75404389  0.11917416  1.0
  C  C147  1  0.86980408  0.87704939  0.24165249  1.0
  C  C148  1  0.86892693  0.62605933  0.24692290  1.0
  C  C149  1  0.90212987  0.14586679  0.58168979  1.0
  C  C150  1  0.86099995  0.08536236  0.57918040  1.0
  C  C151  1  0.90033955  0.02430796  0.57601605  1.0
  C  C152  1  0.97557379  0.02618223  0.57559821  1.0
  C  C153  1  0.97728641  0.14312397  0.58049470  1.0
  C  C154  1  0.78093082  0.08624839  0.57869399  1.0
  C  C155  1  0.73948628  0.03477959  0.61414008  1.0
  C  C156  1  0.66353761  0.03653069  0.61348543  1.0
  C  C157  1  0.62454437  0.08903913  0.57632549  1.0
  C  C158  1  0.54412270  0.08790911  0.57755030  1.0
  C  C159  1  0.50459352  0.02677822  0.57266756  1.0
  C  C160  1  0.42944655  0.02734642  0.57329076  1.0
  C  C161  1  0.42748125  0.14357429  0.58272977  1.0
  C  C162  1  0.50259054  0.14702944  0.58504380  1.0
  C  C163  1  0.66654122  0.13929195  0.53860341  1.0
  C  C164  1  0.74258241  0.13843939  0.54114081  1.0
  C  C165  1  0.16829615  0.41983368  0.70405336  1.0
  C  C166  1  0.18698077  0.39244409  0.63578675  1.0
  C  C167  1  0.18263107  0.32036406  0.63474454  1.0
  C  C168  1  0.20307995  0.28633729  0.57743973  1.0
  C  C169  1  0.22592395  0.32489725  0.51756588  1.0
  C  C170  1  0.25175017  0.28974398  0.45550727  1.0
  C  C171  1  0.22351841  0.39875297  0.51509916  1.0
  C  C172  1  0.20584892  0.43418713  0.57514257  1.0
  C  C173  1  0.20591870  0.51165855  0.57432077  1.0
  C  C174  1  0.25938342  0.55328918  0.54113130  1.0
  C  C175  1  0.25694446  0.62577087  0.53774294  1.0
  C  C176  1  0.20477789  0.66091502  0.57333134  1.0
  C  C177  1  0.20376241  0.73726389  0.57351738  1.0
  C  C178  1  0.26637460  0.77754933  0.56067190  1.0
  C  C179  1  0.26583874  0.84933793  0.56245226  1.0
  C  C180  1  0.20165629  0.88277171  0.57713589  1.0
  C  C181  1  0.13899406  0.84424101  0.59088209  1.0
  C  C182  1  0.14002430  0.77278134  0.58811274  1.0
  C  C183  1  0.15341246  0.61951209  0.60948378  1.0
  C  C184  1  0.15191715  0.54757031  0.60688446  1.0
  C  C185  1  0.24018418  0.43843817  0.44680986  1.0
  C  C186  1  0.20214219  0.08415483  0.37612370  1.0
  C  C187  1  0.21169834  0.02320315  0.34451090  1.0
  C  C188  1  0.20687073  0.02232934  0.27296272  1.0
  C  C189  1  0.19907582  0.08297655  0.22970804  1.0
  C  C190  1  0.19125547  0.14378004  0.26347365  1.0
  C  C191  1  0.18925908  0.14385997  0.33483090  1.0
  C  C192  1  0.19990534  0.08336022  0.15299796  1.0
  C  C193  1  0.25163630  0.04688414  0.11693099  1.0
  C  C194  1  0.24775791  0.04263841  0.04455530  1.0
  C  C195  1  0.20144206  0.08582203  0.00232499  1.0
  C  C196  1  0.20240047  0.08708932  0.92494326  1.0
  C  C197  1  0.26676201  0.08112232  0.88727612  1.0
  C  C198  1  0.26678194  0.07737669  0.81572640  1.0
  C  C199  1  0.20259407  0.08495421  0.77845190  1.0
  C  C200  1  0.13885133  0.09625698  0.81327317  1.0
  C  C201  1  0.13912104  0.09409060  0.88492033  1.0
  C  C202  1  0.15285026  0.12699257  0.03794771  1.0
  C  C203  1  0.14944129  0.12112762  0.11130281  1.0
  C  C204  1  0.20249739  0.08206566  0.70240120  1.0
  C  C205  1  0.20223369  0.08704389  0.45217416  1.0
  C  C206  1  0.20280408  0.21004939  0.57465249  1.0
  C  C207  1  0.20192693  0.95905933  0.57992290  1.0
  C  C208  1  0.23512987  0.47886679  0.91468979  1.0
  C  C209  1  0.19399995  0.41836236  0.91218040  1.0
  C  C210  1  0.23333955  0.35730796  0.90901605  1.0
  C  C211  1  0.30857379  0.35918223  0.90859821  1.0
  C  C212  1  0.31028641  0.47612397  0.91349470  1.0
  C  C213  1  0.11393082  0.41924839  0.91169399  1.0
  C  C214  1  0.07248628  0.36777959  0.94714008  1.0
  C  C215  1  0.99653761  0.36953069  0.94648543  1.0
  C  C216  1  0.95754437  0.42203913  0.90932549  1.0
  C  C217  1  0.87712270  0.42090911  0.91055030  1.0
  C  C218  1  0.83759352  0.35977822  0.90566756  1.0
  C  C219  1  0.76244655  0.36034642  0.90629076  1.0
  C  C220  1  0.76048125  0.47657429  0.91572977  1.0
  C  C221  1  0.83559054  0.48002944  0.91804380  1.0
  C  C222  1  0.99954122  0.47229195  0.87160341  1.0
  C  C223  1  0.07558241  0.47143939  0.87414081  1.0
  C  C224  1  0.50129615  0.75283368  0.03705336  1.0
  C  C225  1  0.51998077  0.72544409  0.96878675  1.0
  C  C226  1  0.51563107  0.65336406  0.96774454  1.0
  C  C227  1  0.53607995  0.61933729  0.91043973  1.0
  C  C228  1  0.55892395  0.65789725  0.85056588  1.0
  C  C229  1  0.58475017  0.62274398  0.78850727  1.0
  C  C230  1  0.55651841  0.73175297  0.84809916  1.0
  C  C231  1  0.53884892  0.76718713  0.90814257  1.0
  C  C232  1  0.53891870  0.84465855  0.90732077  1.0
  C  C233  1  0.59238342  0.88628918  0.87413130  1.0
  C  C234  1  0.58994446  0.95877087  0.87074294  1.0
  C  C235  1  0.53777789  0.99391502  0.90633134  1.0
  C  C236  1  0.53676241  0.07026389  0.90651738  1.0
  C  C237  1  0.59937460  0.11054933  0.89367190  1.0
  C  C238  1  0.59883874  0.18233793  0.89545226  1.0
  C  C239  1  0.53465629  0.21577171  0.91013589  1.0
  C  C240  1  0.47199406  0.17724101  0.92388209  1.0
  C  C241  1  0.47302430  0.10578134  0.92111274  1.0
  C  C242  1  0.48641246  0.95251209  0.94248378  1.0
  C  C243  1  0.48491715  0.88057031  0.93988446  1.0
  C  C244  1  0.57318418  0.77143817  0.77980986  1.0
  C  C245  1  0.53514219  0.41715483  0.70912370  1.0
  C  C246  1  0.54469834  0.35620315  0.67751090  1.0
  C  C247  1  0.53987073  0.35532934  0.60596272  1.0
  C  C248  1  0.53207582  0.41597655  0.56270804  1.0
  C  C249  1  0.52425547  0.47678004  0.59647365  1.0
  C  C250  1  0.52225908  0.47685997  0.66783090  1.0
  C  C251  1  0.53290534  0.41636022  0.48599796  1.0
  C  C252  1  0.58463630  0.37988414  0.44993099  1.0
  C  C253  1  0.58075791  0.37563841  0.37755530  1.0
  C  C254  1  0.53444206  0.41882203  0.33532499  1.0
  C  C255  1  0.53540047  0.42008932  0.25794326  1.0
  C  C256  1  0.59976201  0.41412232  0.22027612  1.0
  C  C257  1  0.59978194  0.41037669  0.14872640  1.0
  C  C258  1  0.53559407  0.41795421  0.11145190  1.0
  C  C259  1  0.47185133  0.42925698  0.14627317  1.0
  C  C260  1  0.47212104  0.42709060  0.21792033  1.0
  C  C261  1  0.48585026  0.45999257  0.37094771  1.0
  C  C262  1  0.48244129  0.45412762  0.44430281  1.0
  C  C263  1  0.53549739  0.41506566  0.03540120  1.0
  C  C264  1  0.53523369  0.42004389  0.78517416  1.0
  C  C265  1  0.53580408  0.54304939  0.90765249  1.0
  C  C266  1  0.53492693  0.29205933  0.91292290  1.0
  N  N267  1  0.68214327  0.75133182  0.24442961  1.0
  N  N268  1  0.05658608  0.75178250  0.24414008  1.0
  N  N269  1  0.78301281  0.85097606  0.67090357  1.0
  N  N270  1  0.01514327  0.08433182  0.57742961  1.0
  N  N271  1  0.38958608  0.08478250  0.57714008  1.0
  N  N272  1  0.11601281  0.18397606  0.00390357  1.0
  N  N273  1  0.34814327  0.41733182  0.91042961  1.0
  N  N274  1  0.72258608  0.41778250  0.91014008  1.0
  N  N275  1  0.44901281  0.51697606  0.33690357  1.0
  Cl  Cl276  1  0.29653598  0.86942867  0.14881348  1.0
  Cl  Cl277  1  0.99431003  0.67820110  0.82723958  1.0
  Cl  Cl278  1  0.96438895  0.64386575  0.67697736  1.0
  Cl  Cl279  1  0.74017949  0.82538799  0.81394563  1.0
  Cl  Cl280  1  0.62953598  0.20242867  0.48181348  1.0
  Cl  Cl281  1  0.32731003  0.01120110  0.16023958  1.0
  Cl  Cl282  1  0.29738895  0.97686575  0.00997736  1.0
  Cl  Cl283  1  0.07317949  0.15838799  0.14694563  1.0
  Cl  Cl284  1  0.96253598  0.53542867  0.81481348  1.0
  Cl  Cl285  1  0.66031003  0.34420110  0.49323958  1.0
  Cl  Cl286  1  0.63038895  0.30986575  0.34297736  1.0
  Cl  Cl287  1  0.40617949  0.49138799  0.47994563  1.0
  O  O288  1  0.92935002  0.75508207  0.14465005  1.0
  O  O289  1  0.92955031  0.74817012  0.34383044  1.0
  O  O290  1  0.92979716  0.85151860  0.24067245  1.0
  O  O291  1  0.92910311  0.65173359  0.24780798  1.0
  O  O292  1  0.80962618  0.85137509  0.24076731  1.0
  O  O293  1  0.80937933  0.74802743  0.34392525  1.0
  O  O294  1  0.80917904  0.75493936  0.14474404  1.0
  O  O295  1  0.80893213  0.65159088  0.24790203  1.0
  O  O296  1  0.26235002  0.08808207  0.47765005  1.0
  O  O297  1  0.26255031  0.08117012  0.67683044  1.0
  O  O298  1  0.26279716  0.18451860  0.57367245  1.0
  O  O299  1  0.26210311  0.98473359  0.58080798  1.0
  O  O300  1  0.14262618  0.18437509  0.57376731  1.0
  O  O301  1  0.14237933  0.08102743  0.67692525  1.0
  O  O302  1  0.14217904  0.08793936  0.47774404  1.0
  O  O303  1  0.14193213  0.98459088  0.58090203  1.0
  O  O304  1  0.59535002  0.42108207  0.81065005  1.0
  O  O305  1  0.59555031  0.41417012  0.00983044  1.0
  O  O306  1  0.59579716  0.51751860  0.90667245  1.0
  O  O307  1  0.59510311  0.31773359  0.91380798  1.0
  O  O308  1  0.47562618  0.51737509  0.90676731  1.0
  O  O309  1  0.47537933  0.41402743  0.00992525  1.0
  O  O310  1  0.47517904  0.42093936  0.81074404  1.0
  O  O311  1  0.47493213  0.31759088  0.91390203  1.0
  F  F312  1  0.53740250  0.87427932  0.25256895  1.0
  F  F313  1  0.67876806  0.63398996  0.23961042  1.0
  F  F314  1  0.53355742  0.63045190  0.23942984  1.0
  F  F315  1  0.20498134  0.63327807  0.23494062  1.0
  F  F316  1  0.20106983  0.87434481  0.26344706  1.0
  F  F317  1  0.05648323  0.86869406  0.25347786  1.0
  F  F318  1  0.89472848  0.63117213  0.04809852  1.0
  F  F319  1  0.87821699  0.62814591  0.91287873  1.0
  F  F320  1  0.85380159  0.87200373  0.89446019  1.0
  F  F321  1  0.84347945  0.87035431  0.03013566  1.0
  F  F322  1  0.74151937  0.76776564  0.58190109  1.0
  F  F323  1  0.87040250  0.20727932  0.58556895  1.0
  F  F324  1  0.01176806  0.96698996  0.57261042  1.0
  F  F325  1  0.86655742  0.96345190  0.57242984  1.0
  F  F326  1  0.53798134  0.96627807  0.56794062  1.0
  F  F327  1  0.53406983  0.20734481  0.59644706  1.0
  F  F328  1  0.38948323  0.20169406  0.58647786  1.0
  F  F329  1  0.22772848  0.96417213  0.38109852  1.0
  F  F330  1  0.21121699  0.96114591  0.24587873  1.0
  F  F331  1  0.18680159  0.20500373  0.22746019  1.0
  F  F332  1  0.17647945  0.20335431  0.36313566  1.0
  F  F333  1  0.07451937  0.10076564  0.91490109  1.0
  F  F334  1  0.20340250  0.54027932  0.91856895  1.0
  F  F335  1  0.34476806  0.29998996  0.90561042  1.0
  F  F336  1  0.19955742  0.29645190  0.90542984  1.0
  F  F337  1  0.87098134  0.29927807  0.90094062  1.0
  F  F338  1  0.86706983  0.54034481  0.92944706  1.0
  F  F339  1  0.72248323  0.53469406  0.91947786  1.0
  F  F340  1  0.56072848  0.29717213  0.71409852  1.0
  F  F341  1  0.54421699  0.29414591  0.57887873  1.0
  F  F342  1  0.51980159  0.53800373  0.56046019  1.0
  F  F343  1  0.50947945  0.53635431  0.69613566  1.0
  F  F344  1  0.40751937  0.43376564  0.24790109  1.0
