# generated using pymatgen
data_Zn4H24C56N5Cl5O15F8
_symmetry_space_group_name_H-M   'P 1'
_cell_length_a   21.54112345
_cell_length_b   21.42790677
_cell_length_c   21.22028783
_cell_angle_alpha   90.41306355
_cell_angle_beta   90.07282988
_cell_angle_gamma   89.19012408
_symmetry_Int_Tables_number   1
_chemical_formula_structural   Zn4H24C56N5Cl5O15F8
_chemical_formula_sum   'Zn4 H24 C56 N5 Cl5 O15 F8'
_cell_volume   9793.64590794
_cell_formula_units_Z   1
loop_
 _symmetry_equiv_pos_site_id
 _symmetry_equiv_pos_as_xyz
  1  'x, y, z'
loop_
 _atom_site_type_symbol
 _atom_site_label
 _atom_site_symmetry_multiplicity
 _atom_site_fract_x
 _atom_site_fract_y
 _atom_site_fract_z
 _atom_site_occupancy
  Zn  Zn0  1  0.78432121  0.69815314  0.85393565  1.0
  Zn  Zn1  1  0.67902787  0.80298194  0.85490435  1.0
  Zn  Zn2  1  0.68059589  0.69835904  0.95974303  1.0
  Zn  Zn3  1  0.78339333  0.80274102  0.96032790  1.0
  H  H4  1  0.37860873  0.73577396  0.00661533  1.0
  H  H5  1  0.38153273  0.78764906  0.81010131  1.0
  H  H6  1  0.29782242  0.84014702  0.78440982  1.0
  H  H7  1  0.32548067  0.88608071  0.84963140  1.0
  H  H8  1  0.22851681  0.92871989  0.78060396  1.0
  H  H9  1  0.22837248  0.93677326  0.86359652  1.0
  H  H10  1  0.16277720  0.83944841  0.78417301  1.0
  H  H11  1  0.13344751  0.88484991  0.84958410  1.0
  H  H12  1  0.08107536  0.78728498  0.80963635  1.0
  H  H13  1  0.97438307  0.71911593  0.00293593  1.0
  H  H14  1  0.08680574  0.73085972  0.00482818  1.0
  H  H15  1  0.17803287  0.68762834  0.97144970  1.0
  H  H16  1  0.28897369  0.68886355  0.97215605  1.0
  H  H17  1  0.65172842  0.38609702  0.92993201  1.0
  H  H18  1  0.77752058  0.30886254  0.83514499  1.0
  H  H19  1  0.73842336  0.21404809  0.81752428  1.0
  H  H20  1  0.64640215  0.18680007  0.90886348  1.0
  H  H21  1  0.62957286  0.09671482  0.95881891  1.0
  H  H22  1  0.65639863  0.98715948  0.97890048  1.0
  H  H23  1  0.80028498  0.99440582  0.83826753  1.0
  H  H24  1  0.65515179  0.82523548  0.26095400  1.0
  H  H25  1  0.65494559  0.81573541  0.14516453  1.0
  H  H26  1  0.81283051  0.68899556  0.15493096  1.0
  H  H27  1  0.82626401  0.80605780  0.46429464  1.0
  C  C28  1  0.50097561  0.75083288  0.90749390  1.0
  C  C29  1  0.46681472  0.73869023  0.96158466  1.0
  C  C30  1  0.40205996  0.74558341  0.96242961  1.0
  C  C31  1  0.36842533  0.76352638  0.90853061  1.0
  C  C32  1  0.40347512  0.77528342  0.85439200  1.0
  C  C33  1  0.46814983  0.77007212  0.85447060  1.0
  C  C34  1  0.29958174  0.76699490  0.90854416  1.0
  C  C35  1  0.26396775  0.80985103  0.87388678  1.0
  C  C36  1  0.28619415  0.86029395  0.83056853  1.0
  C  C37  1  0.22906084  0.90260995  0.82478896  1.0
  C  C38  1  0.17368291  0.85956399  0.83042153  1.0
  C  C39  1  0.19794053  0.80925894  0.87365767  1.0
  C  C40  1  0.16406953  0.76564934  0.90786154  1.0
  C  C41  1  0.09533288  0.76116821  0.90757743  1.0
  C  C42  1  0.05964560  0.77418015  0.85365521  1.0
  C  C43  1  0.99507517  0.76976847  0.85384785  1.0
  C  C44  1  0.96332789  0.75006247  0.90679995  1.0
  C  C45  1  0.99767028  0.73548282  0.96080248  1.0
  C  C46  1  0.06241228  0.74173649  0.96121337  1.0
  C  C47  1  0.20008555  0.72362955  0.94363629  1.0
  C  C48  1  0.26540433  0.72432852  0.94403663  1.0
  C  C49  1  0.73461055  0.51781967  0.90549916  1.0
  C  C50  1  0.68772112  0.47831272  0.92673806  1.0
  C  C51  1  0.68916190  0.41436790  0.91190321  1.0
  C  C52  1  0.73672049  0.38797091  0.87544821  1.0
  C  C53  1  0.78284605  0.42776834  0.85232537  1.0
  C  C54  1  0.78229245  0.49218109  0.86768227  1.0
  C  C55  1  0.70254169  0.27668109  0.88325182  1.0
  C  C56  1  0.69949747  0.11033402  0.88675496  1.0
  C  C57  1  0.66734349  0.07524462  0.93191908  1.0
  C  C58  1  0.68220873  0.01259556  0.94344695  1.0
  C  C59  1  0.72910581  0.98266308  0.90886942  1.0
  C  C60  1  0.76232136  0.01641662  0.86430065  1.0
  C  C61  1  0.74727598  0.07932785  0.85276171  1.0
  C  C62  1  0.73112242  0.75059801  0.67224072  1.0
  C  C63  1  0.78608119  0.74303735  0.63844744  1.0
  C  C64  1  0.78627875  0.74721792  0.57290554  1.0
  C  C65  1  0.73193881  0.76073895  0.53935492  1.0
  C  C66  1  0.67685291  0.76822045  0.57356512  1.0
  C  C67  1  0.67661966  0.76290482  0.63914927  1.0
  C  C68  1  0.73133448  0.76473582  0.46921538  1.0
  C  C69  1  0.68081340  0.74983820  0.37381227  1.0
  C  C70  1  0.73383752  0.76239840  0.27387255  1.0
  C  C71  1  0.68936199  0.79481386  0.23817406  1.0
  C  C72  1  0.68916781  0.78937954  0.17239136  1.0
  C  C73  1  0.73255975  0.75053584  0.14157363  1.0
  C  C74  1  0.77715300  0.71807901  0.17677867  1.0
  C  C75  1  0.77709487  0.72399837  0.24224047  1.0
  C  C76  1  0.78592407  0.78725986  0.37525551  1.0
  C  C77  1  0.78723202  0.78819018  0.43803884  1.0
  C  C78  1  0.73233269  0.75053161  0.07135785  1.0
  C  C79  1  0.72990918  0.91311915  0.90841823  1.0
  C  C80  1  0.73133479  0.75058621  0.74245683  1.0
  C  C81  1  0.89415623  0.75021022  0.90692820  1.0
  C  C82  1  0.73378085  0.58736348  0.90601566  1.0
  C  C83  1  0.57014515  0.75086034  0.90748954  1.0
  N  N84  1  0.74041517  0.32301695  0.86114566  1.0
  N  N85  1  0.72004319  0.21747993  0.86139188  1.0
  N  N86  1  0.67533121  0.17084934  0.87342896  1.0
  N  N87  1  0.68236612  0.74813898  0.43869144  1.0
  N  N88  1  0.73469249  0.76800465  0.34119396  1.0
  Cl  Cl89  1  0.62400050  0.50436608  0.96969965  1.0
  Cl  Cl90  1  0.84151878  0.53903105  0.83979369  1.0
  Cl  Cl91  1  0.84085091  0.39549693  0.80440860  1.0
  Cl  Cl92  1  0.78819194  0.11474662  0.79289087  1.0
  Cl  Cl93  1  0.84834919  0.81794967  0.33528973  1.0
  O  O94  1  0.65851794  0.28360298  0.91939270  1.0
  O  O95  1  0.63341715  0.73381816  0.34606374  1.0
  O  O96  1  0.73183497  0.75055896  0.90722785  1.0
  O  O97  1  0.77008592  0.71207359  0.76566268  1.0
  O  O98  1  0.59214953  0.78929025  0.86897247  1.0
  O  O99  1  0.69539975  0.61077614  0.94505743  1.0
  O  O100  1  0.69272720  0.78909072  0.76637482  1.0
  O  O101  1  0.77160639  0.61062462  0.86732090  1.0
  O  O102  1  0.59330092  0.71242395  0.94599707  1.0
  O  O103  1  0.69449991  0.71219048  0.04822178  1.0
  O  O104  1  0.87060295  0.78868083  0.94605404  1.0
  O  O105  1  0.77002527  0.78888031  0.04865170  1.0
  O  O106  1  0.87128492  0.71184016  0.86788738  1.0
  O  O107  1  0.69182806  0.89050574  0.86953901  1.0
  O  O108  1  0.76850483  0.89032851  0.94699351  1.0
  F  F109  1  0.49804073  0.78356701  0.80088817  1.0
  F  F110  1  0.96430822  0.78488810  0.80100890  1.0
  F  F111  1  0.49440713  0.71952773  0.01480767  1.0
  F  F112  1  0.83984681  0.72990993  0.66762087  1.0
  F  F113  1  0.84008219  0.73642208  0.54273795  1.0
  F  F114  1  0.62295526  0.78179878  0.54482718  1.0
  F  F115  1  0.62265847  0.76936152  0.67024200  1.0
  F  F116  1  0.81875653  0.69015343  0.27498131  1.0
  Zn  Zn0  1  0.03432121  0.94815314  0.10393565  1.0
  Zn  Zn1  1  0.92902787  0.05298194  0.10490435  1.0
  Zn  Zn2  1  0.93059589  0.94835904  0.20974303  1.0
  Zn  Zn3  1  0.03339333  0.05274102  0.21032790  1.0
  H  H4  1  0.62860873  0.98577396  0.25661533  1.0
  H  H5  1  0.63153273  0.03764906  0.06010131  1.0
  H  H6  1  0.54782242  0.09014702  0.03440982  1.0
  H  H7  1  0.57548067  0.13608071  0.09963140  1.0
  H  H8  1  0.47851681  0.17871989  0.03060396  1.0
  H  H9  1  0.47837248  0.18677326  0.11359652  1.0
  H  H10  1  0.41277720  0.08944841  0.03417301  1.0
  H  H11  1  0.38344751  0.13484991  0.09958410  1.0
  H  H12  1  0.33107536  0.03728498  0.05963635  1.0
  H  H13  1  0.22438307  0.96911593  0.25293593  1.0
  H  H14  1  0.33680574  0.98085972  0.25482818  1.0
  H  H15  1  0.42803287  0.93762834  0.22144970  1.0
  H  H16  1  0.53897369  0.93886355  0.22215605  1.0
  H  H17  1  0.90172842  0.63609702  0.17993201  1.0
  H  H18  1  0.02752058  0.55886254  0.08514499  1.0
  H  H19  1  0.98842336  0.46404809  0.06752428  1.0
  H  H20  1  0.89640215  0.43680007  0.15886348  1.0
  H  H21  1  0.87957286  0.34671482  0.20881891  1.0
  H  H22  1  0.90639863  0.23715948  0.22890048  1.0
  H  H23  1  0.05028498  0.24440582  0.08826753  1.0
  H  H24  1  0.90515179  0.07523548  0.51095400  1.0
  H  H25  1  0.90494559  0.06573541  0.39516453  1.0
  H  H26  1  0.06283051  0.93899556  0.40493096  1.0
  H  H27  1  0.07626401  0.05605780  0.71429464  1.0
  C  C28  1  0.75097561  0.00083288  0.15749390  1.0
  C  C29  1  0.71681472  0.98869023  0.21158466  1.0
  C  C30  1  0.65205996  0.99558341  0.21242961  1.0
  C  C31  1  0.61842533  0.01352638  0.15853061  1.0
  C  C32  1  0.65347512  0.02528342  0.10439200  1.0
  C  C33  1  0.71814983  0.02007212  0.10447060  1.0
  C  C34  1  0.54958174  0.01699490  0.15854416  1.0
  C  C35  1  0.51396775  0.05985103  0.12388678  1.0
  C  C36  1  0.53619415  0.11029395  0.08056853  1.0
  C  C37  1  0.47906084  0.15260995  0.07478896  1.0
  C  C38  1  0.42368291  0.10956399  0.08042153  1.0
  C  C39  1  0.44794053  0.05925894  0.12365767  1.0
  C  C40  1  0.41406953  0.01564934  0.15786154  1.0
  C  C41  1  0.34533288  0.01116821  0.15757743  1.0
  C  C42  1  0.30964560  0.02418015  0.10365521  1.0
  C  C43  1  0.24507517  0.01976847  0.10384785  1.0
  C  C44  1  0.21332789  0.00006247  0.15679995  1.0
  C  C45  1  0.24767028  0.98548282  0.21080248  1.0
  C  C46  1  0.31241228  0.99173649  0.21121337  1.0
  C  C47  1  0.45008555  0.97362955  0.19363629  1.0
  C  C48  1  0.51540433  0.97432852  0.19403663  1.0
  C  C49  1  0.98461055  0.76781967  0.15549916  1.0
  C  C50  1  0.93772112  0.72831272  0.17673806  1.0
  C  C51  1  0.93916190  0.66436790  0.16190321  1.0
  C  C52  1  0.98672049  0.63797091  0.12544821  1.0
  C  C53  1  0.03284605  0.67776834  0.10232537  1.0
  C  C54  1  0.03229245  0.74218109  0.11768227  1.0
  C  C55  1  0.95254169  0.52668109  0.13325182  1.0
  C  C56  1  0.94949747  0.36033402  0.13675496  1.0
  C  C57  1  0.91734349  0.32524462  0.18191908  1.0
  C  C58  1  0.93220873  0.26259556  0.19344695  1.0
  C  C59  1  0.97910581  0.23266308  0.15886942  1.0
  C  C60  1  0.01232136  0.26641662  0.11430065  1.0
  C  C61  1  0.99727598  0.32932785  0.10276171  1.0
  C  C62  1  0.98112242  0.00059801  0.92224072  1.0
  C  C63  1  0.03608119  0.99303735  0.88844744  1.0
  C  C64  1  0.03627875  0.99721792  0.82290554  1.0
  C  C65  1  0.98193881  0.01073895  0.78935492  1.0
  C  C66  1  0.92685291  0.01822045  0.82356512  1.0
  C  C67  1  0.92661966  0.01290482  0.88914927  1.0
  C  C68  1  0.98133448  0.01473582  0.71921538  1.0
  C  C69  1  0.93081340  0.99983820  0.62381227  1.0
  C  C70  1  0.98383752  0.01239840  0.52387255  1.0
  C  C71  1  0.93936199  0.04481386  0.48817406  1.0
  C  C72  1  0.93916781  0.03937954  0.42239136  1.0
  C  C73  1  0.98255975  0.00053584  0.39157363  1.0
  C  C74  1  0.02715300  0.96807901  0.42677867  1.0
  C  C75  1  0.02709487  0.97399837  0.49224047  1.0
  C  C76  1  0.03592407  0.03725986  0.62525551  1.0
  C  C77  1  0.03723202  0.03819018  0.68803884  1.0
  C  C78  1  0.98233269  0.00053161  0.32135785  1.0
  C  C79  1  0.97990918  0.16311915  0.15841823  1.0
  C  C80  1  0.98133479  0.00058621  0.99245683  1.0
  C  C81  1  0.14415623  0.00021022  0.15692820  1.0
  C  C82  1  0.98378085  0.83736348  0.15601566  1.0
  C  C83  1  0.82014515  0.00086034  0.15748954  1.0
  N  N84  1  0.99041517  0.57301695  0.11114566  1.0
  N  N85  1  0.97004319  0.46747993  0.11139188  1.0
  N  N86  1  0.92533121  0.42084934  0.12342896  1.0
  N  N87  1  0.93236612  0.99813898  0.68869144  1.0
  N  N88  1  0.98469249  0.01800465  0.59119396  1.0
  Cl  Cl89  1  0.87400050  0.75436608  0.21969965  1.0
  Cl  Cl90  1  0.09151878  0.78903105  0.08979369  1.0
  Cl  Cl91  1  0.09085091  0.64549693  0.05440860  1.0
  Cl  Cl92  1  0.03819194  0.36474662  0.04289087  1.0
  Cl  Cl93  1  0.09834919  0.06794967  0.58528973  1.0
  O  O94  1  0.90851794  0.53360298  0.16939270  1.0
  O  O95  1  0.88341715  0.98381816  0.59606374  1.0
  O  O96  1  0.98183497  0.00055896  0.15722785  1.0
  O  O97  1  0.02008592  0.96207359  0.01566268  1.0
  O  O98  1  0.84214953  0.03929025  0.11897247  1.0
  O  O99  1  0.94539975  0.86077614  0.19505743  1.0
  O  O100  1  0.94272720  0.03909072  0.01637482  1.0
  O  O101  1  0.02160639  0.86062462  0.11732090  1.0
  O  O102  1  0.84330092  0.96242395  0.19599707  1.0
  O  O103  1  0.94449991  0.96219048  0.29822178  1.0
  O  O104  1  0.12060295  0.03868083  0.19605404  1.0
  O  O105  1  0.02002527  0.03888031  0.29865170  1.0
  O  O106  1  0.12128492  0.96184016  0.11788738  1.0
  O  O107  1  0.94182806  0.14050574  0.11953901  1.0
  O  O108  1  0.01850483  0.14032851  0.19699351  1.0
  F  F109  1  0.74804073  0.03356701  0.05088817  1.0
  F  F110  1  0.21430822  0.03488810  0.05100890  1.0
  F  F111  1  0.74440713  0.96952773  0.26480767  1.0
  F  F112  1  0.08984681  0.97990993  0.91762087  1.0
  F  F113  1  0.09008219  0.98642208  0.79273795  1.0
  F  F114  1  0.87295526  0.03179878  0.79482718  1.0
  F  F115  1  0.87265847  0.01936152  0.92024200  1.0
  F  F116  1  0.06875653  0.94015343  0.52498131  1.0
  Zn  Zn0  1  0.28432121  0.19815314  0.35393565  1.0
  Zn  Zn1  1  0.17902787  0.30298194  0.35490435  1.0
  Zn  Zn2  1  0.18059589  0.19835904  0.45974303  1.0
  Zn  Zn3  1  0.28339333  0.30274102  0.46032790  1.0
  H  H4  1  0.87860873  0.23577396  0.50661533  1.0
  H  H5  1  0.88153273  0.28764906  0.31010131  1.0
  H  H6  1  0.79782242  0.34014702  0.28440982  1.0
  H  H7  1  0.82548067  0.38608071  0.34963140  1.0
  H  H8  1  0.72851681  0.42871989  0.28060396  1.0
  H  H9  1  0.72837248  0.43677326  0.36359652  1.0
  H  H10  1  0.66277720  0.33944841  0.28417301  1.0
  H  H11  1  0.63344751  0.38484991  0.34958410  1.0
  H  H12  1  0.58107536  0.28728498  0.30963635  1.0
  H  H13  1  0.47438307  0.21911593  0.50293593  1.0
  H  H14  1  0.58680574  0.23085972  0.50482818  1.0
  H  H15  1  0.67803287  0.18762834  0.47144970  1.0
  H  H16  1  0.78897369  0.18886355  0.47215605  1.0
  H  H17  1  0.15172842  0.88609702  0.42993201  1.0
  H  H18  1  0.27752058  0.80886254  0.33514499  1.0
  H  H19  1  0.23842336  0.71404809  0.31752428  1.0
  H  H20  1  0.14640215  0.68680007  0.40886348  1.0
  H  H21  1  0.12957286  0.59671482  0.45881891  1.0
  H  H22  1  0.15639863  0.48715948  0.47890048  1.0
  H  H23  1  0.30028498  0.49440582  0.33826753  1.0
  H  H24  1  0.15515179  0.32523548  0.76095400  1.0
  H  H25  1  0.15494559  0.31573541  0.64516453  1.0
  H  H26  1  0.31283051  0.18899556  0.65493096  1.0
  H  H27  1  0.32626401  0.30605780  0.96429464  1.0
  C  C28  1  0.00097561  0.25083288  0.40749390  1.0
  C  C29  1  0.96681472  0.23869023  0.46158466  1.0
  C  C30  1  0.90205996  0.24558341  0.46242961  1.0
  C  C31  1  0.86842533  0.26352638  0.40853061  1.0
  C  C32  1  0.90347512  0.27528342  0.35439200  1.0
  C  C33  1  0.96814983  0.27007212  0.35447060  1.0
  C  C34  1  0.79958174  0.26699490  0.40854416  1.0
  C  C35  1  0.76396775  0.30985103  0.37388678  1.0
  C  C36  1  0.78619415  0.36029395  0.33056853  1.0
  C  C37  1  0.72906084  0.40260995  0.32478896  1.0
  C  C38  1  0.67368291  0.35956399  0.33042153  1.0
  C  C39  1  0.69794053  0.30925894  0.37365767  1.0
  C  C40  1  0.66406953  0.26564934  0.40786154  1.0
  C  C41  1  0.59533288  0.26116821  0.40757743  1.0
  C  C42  1  0.55964560  0.27418015  0.35365521  1.0
  C  C43  1  0.49507517  0.26976847  0.35384785  1.0
  C  C44  1  0.46332789  0.25006247  0.40679995  1.0
  C  C45  1  0.49767028  0.23548282  0.46080248  1.0
  C  C46  1  0.56241228  0.24173649  0.46121337  1.0
  C  C47  1  0.70008555  0.22362955  0.44363629  1.0
  C  C48  1  0.76540433  0.22432852  0.44403663  1.0
  C  C49  1  0.23461055  0.01781967  0.40549916  1.0
  C  C50  1  0.18772112  0.97831272  0.42673806  1.0
  C  C51  1  0.18916190  0.91436790  0.41190321  1.0
  C  C52  1  0.23672049  0.88797091  0.37544821  1.0
  C  C53  1  0.28284605  0.92776834  0.35232537  1.0
  C  C54  1  0.28229245  0.99218109  0.36768227  1.0
  C  C55  1  0.20254169  0.77668109  0.38325182  1.0
  C  C56  1  0.19949747  0.61033402  0.38675496  1.0
  C  C57  1  0.16734349  0.57524462  0.43191908  1.0
  C  C58  1  0.18220873  0.51259556  0.44344695  1.0
  C  C59  1  0.22910581  0.48266308  0.40886942  1.0
  C  C60  1  0.26232136  0.51641662  0.36430065  1.0
  C  C61  1  0.24727598  0.57932785  0.35276171  1.0
  C  C62  1  0.23112242  0.25059801  0.17224072  1.0
  C  C63  1  0.28608119  0.24303735  0.13844744  1.0
  C  C64  1  0.28627875  0.24721792  0.07290554  1.0
  C  C65  1  0.23193881  0.26073895  0.03935492  1.0
  C  C66  1  0.17685291  0.26822045  0.07356512  1.0
  C  C67  1  0.17661966  0.26290482  0.13914927  1.0
  C  C68  1  0.23133448  0.26473582  0.96921538  1.0
  C  C69  1  0.18081340  0.24983820  0.87381227  1.0
  C  C70  1  0.23383752  0.26239840  0.77387255  1.0
  C  C71  1  0.18936199  0.29481386  0.73817406  1.0
  C  C72  1  0.18916781  0.28937954  0.67239136  1.0
  C  C73  1  0.23255975  0.25053584  0.64157363  1.0
  C  C74  1  0.27715300  0.21807901  0.67677867  1.0
  C  C75  1  0.27709487  0.22399837  0.74224047  1.0
  C  C76  1  0.28592407  0.28725986  0.87525551  1.0
  C  C77  1  0.28723202  0.28819018  0.93803884  1.0
  C  C78  1  0.23233269  0.25053161  0.57135785  1.0
  C  C79  1  0.22990918  0.41311915  0.40841823  1.0
  C  C80  1  0.23133479  0.25058621  0.24245683  1.0
  C  C81  1  0.39415623  0.25021022  0.40692820  1.0
  C  C82  1  0.23378085  0.08736348  0.40601566  1.0
  C  C83  1  0.07014515  0.25086034  0.40748954  1.0
  N  N84  1  0.24041517  0.82301695  0.36114566  1.0
  N  N85  1  0.22004319  0.71747993  0.36139188  1.0
  N  N86  1  0.17533121  0.67084934  0.37342896  1.0
  N  N87  1  0.18236612  0.24813898  0.93869144  1.0
  N  N88  1  0.23469249  0.26800465  0.84119396  1.0
  Cl  Cl89  1  0.12400050  0.00436608  0.46969965  1.0
  Cl  Cl90  1  0.34151878  0.03903105  0.33979369  1.0
  Cl  Cl91  1  0.34085091  0.89549693  0.30440860  1.0
  Cl  Cl92  1  0.28819194  0.61474662  0.29289087  1.0
  Cl  Cl93  1  0.34834919  0.31794967  0.83528973  1.0
  O  O94  1  0.15851794  0.78360298  0.41939270  1.0
  O  O95  1  0.13341715  0.23381816  0.84606374  1.0
  O  O96  1  0.23183497  0.25055896  0.40722785  1.0
  O  O97  1  0.27008592  0.21207359  0.26566268  1.0
  O  O98  1  0.09214953  0.28929025  0.36897247  1.0
  O  O99  1  0.19539975  0.11077614  0.44505743  1.0
  O  O100  1  0.19272720  0.28909072  0.26637482  1.0
  O  O101  1  0.27160639  0.11062462  0.36732090  1.0
  O  O102  1  0.09330092  0.21242395  0.44599707  1.0
  O  O103  1  0.19449991  0.21219048  0.54822178  1.0
  O  O104  1  0.37060295  0.28868083  0.44605404  1.0
  O  O105  1  0.27002527  0.28888031  0.54865170  1.0
  O  O106  1  0.37128492  0.21184016  0.36788738  1.0
  O  O107  1  0.19182806  0.39050574  0.36953901  1.0
  O  O108  1  0.26850483  0.39032851  0.44699351  1.0
  F  F109  1  0.99804073  0.28356701  0.30088817  1.0
  F  F110  1  0.46430822  0.28488810  0.30100890  1.0
  F  F111  1  0.99440713  0.21952773  0.51480767  1.0
  F  F112  1  0.33984681  0.22990993  0.16762087  1.0
  F  F113  1  0.34008219  0.23642208  0.04273795  1.0
  F  F114  1  0.12295526  0.28179878  0.04482718  1.0
  F  F115  1  0.12265847  0.26936152  0.17024200  1.0
  F  F116  1  0.31875653  0.19015343  0.77498131  1.0
  Zn  Zn0  1  0.53432121  0.44815314  0.60393565  1.0
  Zn  Zn1  1  0.42902787  0.55298194  0.60490435  1.0
  Zn  Zn2  1  0.43059589  0.44835904  0.70974303  1.0
  Zn  Zn3  1  0.53339333  0.55274102  0.71032790  1.0
  H  H4  1  0.12860873  0.48577396  0.75661533  1.0
  H  H5  1  0.13153273  0.53764906  0.56010131  1.0
  H  H6  1  0.04782242  0.59014702  0.53440982  1.0
  H  H7  1  0.07548067  0.63608071  0.59963140  1.0
  H  H8  1  0.97851681  0.67871989  0.53060396  1.0
  H  H9  1  0.97837248  0.68677326  0.61359652  1.0
  H  H10  1  0.91277720  0.58944841  0.53417301  1.0
  H  H11  1  0.88344751  0.63484991  0.59958410  1.0
  H  H12  1  0.83107536  0.53728498  0.55963635  1.0
  H  H13  1  0.72438307  0.46911593  0.75293593  1.0
  H  H14  1  0.83680574  0.48085972  0.75482818  1.0
  H  H15  1  0.92803287  0.43762834  0.72144970  1.0
  H  H16  1  0.03897369  0.43886355  0.72215605  1.0
  H  H17  1  0.40172842  0.13609702  0.67993201  1.0
  H  H18  1  0.52752058  0.05886254  0.58514499  1.0
  H  H19  1  0.48842336  0.96404809  0.56752428  1.0
  H  H20  1  0.39640215  0.93680007  0.65886348  1.0
  H  H21  1  0.37957286  0.84671482  0.70881891  1.0
  H  H22  1  0.40639863  0.73715948  0.72890048  1.0
  H  H23  1  0.55028498  0.74440582  0.58826753  1.0
  H  H24  1  0.40515179  0.57523548  0.01095400  1.0
  H  H25  1  0.40494559  0.56573541  0.89516453  1.0
  H  H26  1  0.56283051  0.43899556  0.90493096  1.0
  H  H27  1  0.57626401  0.55605780  0.21429464  1.0
  C  C28  1  0.25097561  0.50083288  0.65749390  1.0
  C  C29  1  0.21681472  0.48869023  0.71158466  1.0
  C  C30  1  0.15205996  0.49558341  0.71242961  1.0
  C  C31  1  0.11842533  0.51352638  0.65853061  1.0
  C  C32  1  0.15347512  0.52528342  0.60439200  1.0
  C  C33  1  0.21814983  0.52007212  0.60447060  1.0
  C  C34  1  0.04958174  0.51699490  0.65854416  1.0
  C  C35  1  0.01396775  0.55985103  0.62388678  1.0
  C  C36  1  0.03619415  0.61029395  0.58056853  1.0
  C  C37  1  0.97906084  0.65260995  0.57478896  1.0
  C  C38  1  0.92368291  0.60956399  0.58042153  1.0
  C  C39  1  0.94794053  0.55925894  0.62365767  1.0
  C  C40  1  0.91406953  0.51564934  0.65786154  1.0
  C  C41  1  0.84533288  0.51116821  0.65757743  1.0
  C  C42  1  0.80964560  0.52418015  0.60365521  1.0
  C  C43  1  0.74507517  0.51976847  0.60384785  1.0
  C  C44  1  0.71332789  0.50006247  0.65679995  1.0
  C  C45  1  0.74767028  0.48548282  0.71080248  1.0
  C  C46  1  0.81241228  0.49173649  0.71121337  1.0
  C  C47  1  0.95008555  0.47362955  0.69363629  1.0
  C  C48  1  0.01540433  0.47432852  0.69403663  1.0
  C  C49  1  0.48461055  0.26781967  0.65549916  1.0
  C  C50  1  0.43772112  0.22831272  0.67673806  1.0
  C  C51  1  0.43916190  0.16436790  0.66190321  1.0
  C  C52  1  0.48672049  0.13797091  0.62544821  1.0
  C  C53  1  0.53284605  0.17776834  0.60232537  1.0
  C  C54  1  0.53229245  0.24218109  0.61768227  1.0
  C  C55  1  0.45254169  0.02668109  0.63325182  1.0
  C  C56  1  0.44949747  0.86033402  0.63675496  1.0
  C  C57  1  0.41734349  0.82524462  0.68191908  1.0
  C  C58  1  0.43220873  0.76259556  0.69344695  1.0
  C  C59  1  0.47910581  0.73266308  0.65886942  1.0
  C  C60  1  0.51232136  0.76641662  0.61430065  1.0
  C  C61  1  0.49727598  0.82932785  0.60276171  1.0
  C  C62  1  0.48112242  0.50059801  0.42224072  1.0
  C  C63  1  0.53608119  0.49303735  0.38844744  1.0
  C  C64  1  0.53627875  0.49721792  0.32290554  1.0
  C  C65  1  0.48193881  0.51073895  0.28935492  1.0
  C  C66  1  0.42685291  0.51822045  0.32356512  1.0
  C  C67  1  0.42661966  0.51290482  0.38914927  1.0
  C  C68  1  0.48133448  0.51473582  0.21921538  1.0
  C  C69  1  0.43081340  0.49983820  0.12381227  1.0
  C  C70  1  0.48383752  0.51239840  0.02387255  1.0
  C  C71  1  0.43936199  0.54481386  0.98817406  1.0
  C  C72  1  0.43916781  0.53937954  0.92239136  1.0
  C  C73  1  0.48255975  0.50053584  0.89157363  1.0
  C  C74  1  0.52715300  0.46807901  0.92677867  1.0
  C  C75  1  0.52709487  0.47399837  0.99224047  1.0
  C  C76  1  0.53592407  0.53725986  0.12525551  1.0
  C  C77  1  0.53723202  0.53819018  0.18803884  1.0
  C  C78  1  0.48233269  0.50053161  0.82135785  1.0
  C  C79  1  0.47990918  0.66311915  0.65841823  1.0
  C  C80  1  0.48133479  0.50058621  0.49245683  1.0
  C  C81  1  0.64415623  0.50021022  0.65692820  1.0
  C  C82  1  0.48378085  0.33736348  0.65601566  1.0
  C  C83  1  0.32014515  0.50086034  0.65748954  1.0
  N  N84  1  0.49041517  0.07301695  0.61114566  1.0
  N  N85  1  0.47004319  0.96747993  0.61139188  1.0
  N  N86  1  0.42533121  0.92084934  0.62342896  1.0
  N  N87  1  0.43236612  0.49813898  0.18869144  1.0
  N  N88  1  0.48469249  0.51800465  0.09119396  1.0
  Cl  Cl89  1  0.37400050  0.25436608  0.71969965  1.0
  Cl  Cl90  1  0.59151878  0.28903105  0.58979369  1.0
  Cl  Cl91  1  0.59085091  0.14549693  0.55440860  1.0
  Cl  Cl92  1  0.53819194  0.86474662  0.54289087  1.0
  Cl  Cl93  1  0.59834919  0.56794967  0.08528973  1.0
  O  O94  1  0.40851794  0.03360298  0.66939270  1.0
  O  O95  1  0.38341715  0.48381816  0.09606374  1.0
  O  O96  1  0.48183497  0.50055896  0.65722785  1.0
  O  O97  1  0.52008592  0.46207359  0.51566268  1.0
  O  O98  1  0.34214953  0.53929025  0.61897247  1.0
  O  O99  1  0.44539975  0.36077614  0.69505743  1.0
  O  O100  1  0.44272720  0.53909072  0.51637482  1.0
  O  O101  1  0.52160639  0.36062462  0.61732090  1.0
  O  O102  1  0.34330092  0.46242395  0.69599707  1.0
  O  O103  1  0.44449991  0.46219048  0.79822178  1.0
  O  O104  1  0.62060295  0.53868083  0.69605404  1.0
  O  O105  1  0.52002527  0.53888031  0.79865170  1.0
  O  O106  1  0.62128492  0.46184016  0.61788738  1.0
  O  O107  1  0.44182806  0.64050574  0.61953901  1.0
  O  O108  1  0.51850483  0.64032851  0.69699351  1.0
  F  F109  1  0.24804073  0.53356701  0.55088817  1.0
  F  F110  1  0.71430822  0.53488810  0.55100890  1.0
  F  F111  1  0.24440713  0.46952773  0.76480767  1.0
  F  F112  1  0.58984681  0.47990993  0.41762087  1.0
  F  F113  1  0.59008219  0.48642208  0.29273795  1.0
  F  F114  1  0.37295526  0.53179878  0.29482718  1.0
  F  F115  1  0.37265847  0.51936152  0.42024200  1.0
  F  F116  1  0.56875653  0.44015343  0.02498131  1.0
