# generated using pymatgen
data_Zn4H23C47N6(O5F3)3
_symmetry_space_group_name_H-M   'P 1'
_cell_length_a   16.20524053
_cell_length_b   21.32322641
_cell_length_c   21.07191848
_cell_angle_alpha   91.07392298
_cell_angle_beta   87.75827779
_cell_angle_gamma   89.35821488
_symmetry_Int_Tables_number   1
_chemical_formula_structural   Zn4H23C47N6(O5F3)3
_chemical_formula_sum   'Zn12 H69 C141 N18 O45 F27'
_cell_volume   7273.99006936
_cell_formula_units_Z   3
loop_
 _symmetry_equiv_pos_site_id
 _symmetry_equiv_pos_as_xyz
  1  'x, y, z'
loop_
 _atom_site_type_symbol
 _atom_site_label
 _atom_site_symmetry_multiplicity
 _atom_site_fract_x
 _atom_site_fract_y
 _atom_site_fract_z
 _atom_site_occupancy
  Zn  Zn0  1  0.71365484  0.69618216  0.85751758  1.0
  Zn  Zn1  1  0.57416352  0.80173873  0.86215843  1.0
  Zn  Zn2  1  0.57404139  0.69724113  0.96716889  1.0
  Zn  Zn3  1  0.71136467  0.80194284  0.96531052  1.0
  Zn  Zn4  1  0.04665484  0.02918216  0.19051758  1.0
  Zn  Zn5  1  0.90716352  0.13473873  0.19515843  1.0
  Zn  Zn6  1  0.90704139  0.03024113  0.30016889  1.0
  Zn  Zn7  1  0.04436467  0.13494284  0.29831052  1.0
  Zn  Zn8  1  0.37965484  0.36218216  0.52351758  1.0
  Zn  Zn9  1  0.24016352  0.46773873  0.52815843  1.0
  Zn  Zn10  1  0.24004139  0.36324113  0.63316889  1.0
  Zn  Zn11  1  0.37736467  0.46794284  0.63131052  1.0
  H  H12  1  0.16529704  0.63942177  0.81795947  1.0
  H  H13  1  0.22788069  0.63191591  0.70919959  1.0
  H  H14  1  0.25428952  0.72807917  0.64771349  1.0
  H  H15  1  0.21847784  0.83241545  0.69554523  1.0
  H  H16  1  0.15942696  0.84127196  0.80530964  1.0
  H  H17  1  0.18726836  0.75737595  0.03876070  1.0
  H  H18  1  0.10096851  0.71438146  0.01540356  1.0
  H  H19  1  0.10045224  0.79795677  0.01153186  1.0
  H  H20  1  0.53062911  0.49514294  0.96157159  1.0
  H  H21  1  0.56699939  0.19658610  0.95524485  1.0
  H  H22  1  0.50698272  0.98574649  0.92217938  1.0
  H  H23  1  0.77388345  0.99619963  0.91510684  1.0
  H  H24  1  0.76436712  0.11066879  0.92308066  1.0
  H  H25  1  0.64672376  0.65099811  0.54782955  1.0
  H  H26  1  0.76840675  0.82859616  0.57283418  1.0
  H  H27  1  0.69057290  0.65225296  0.45846432  1.0
  H  H28  1  0.78196723  0.67117849  0.41737672  1.0
  H  H29  1  0.62181818  0.74941565  0.40962598  1.0
  H  H30  1  0.64240179  0.68080315  0.36242363  1.0
  H  H31  1  0.77075727  0.75860331  0.12287145  1.0
  H  H32  1  0.82014188  0.81065819  0.32146404  1.0
  H  H33  1  0.73953270  0.84193636  0.42613124  1.0
  H  H34  1  0.84696459  0.84865189  0.41541026  1.0
  H  H35  1  0.49829704  0.97242177  0.15095947  1.0
  H  H36  1  0.56088069  0.96491591  0.04219959  1.0
  H  H37  1  0.58728952  0.06107917  0.98071349  1.0
  H  H38  1  0.55147784  0.16541545  0.02854523  1.0
  H  H39  1  0.49242696  0.17427196  0.13830964  1.0
  H  H40  1  0.52026836  0.09037595  0.37176070  1.0
  H  H41  1  0.43396851  0.04738146  0.34840356  1.0
  H  H42  1  0.43345224  0.13095677  0.34453186  1.0
  H  H43  1  0.86362911  0.82814294  0.29457159  1.0
  H  H44  1  0.89999939  0.52958610  0.28824485  1.0
  H  H45  1  0.83998272  0.31874649  0.25517938  1.0
  H  H46  1  0.10688345  0.32919963  0.24810684  1.0
  H  H47  1  0.09736712  0.44366879  0.25608066  1.0
  H  H48  1  0.97972376  0.98399811  0.88082955  1.0
  H  H49  1  0.10140675  0.16159616  0.90583418  1.0
  H  H50  1  0.02357290  0.98525296  0.79146432  1.0
  H  H51  1  0.11496723  0.00417849  0.75037672  1.0
  H  H52  1  0.95481818  0.08241565  0.74262598  1.0
  H  H53  1  0.97540179  0.01380315  0.69542363  1.0
  H  H54  1  0.10375727  0.09160331  0.45587145  1.0
  H  H55  1  0.15314188  0.14365819  0.65446404  1.0
  H  H56  1  0.07253270  0.17493636  0.75913124  1.0
  H  H57  1  0.17996459  0.18165189  0.74841026  1.0
  H  H58  1  0.83129704  0.30542177  0.48395947  1.0
  H  H59  1  0.89388069  0.29791591  0.37519959  1.0
  H  H60  1  0.92028952  0.39407917  0.31371349  1.0
  H  H61  1  0.88447784  0.49841545  0.36154523  1.0
  H  H62  1  0.82542696  0.50727196  0.47130964  1.0
  H  H63  1  0.85326836  0.42337595  0.70476070  1.0
  H  H64  1  0.76696851  0.38038146  0.68140356  1.0
  H  H65  1  0.76645224  0.46395677  0.67753186  1.0
  H  H66  1  0.19662911  0.16114294  0.62757159  1.0
  H  H67  1  0.23299939  0.86258610  0.62124485  1.0
  H  H68  1  0.17298272  0.65174649  0.58817938  1.0
  H  H69  1  0.43988345  0.66219963  0.58110684  1.0
  H  H70  1  0.43036712  0.77666879  0.58908066  1.0
  H  H71  1  0.31272376  0.31699811  0.21382955  1.0
  H  H72  1  0.43440675  0.49459616  0.23883418  1.0
  H  H73  1  0.35657290  0.31825296  0.12446432  1.0
  H  H74  1  0.44796723  0.33717849  0.08337672  1.0
  H  H75  1  0.28781818  0.41541565  0.07562598  1.0
  H  H76  1  0.30840179  0.34680315  0.02842363  1.0
  H  H77  1  0.43675727  0.42460331  0.78887145  1.0
  H  H78  1  0.48614188  0.47665819  0.98746404  1.0
  H  H79  1  0.40553270  0.50793636  0.09213124  1.0
  H  H80  1  0.51296459  0.51465189  0.08141026  1.0
  C  C81  1  0.33620517  0.75000091  0.92008710  1.0
  C  C82  1  0.26251783  0.75080761  0.92850548  1.0
  C  C83  1  0.17396796  0.75084654  0.93692486  1.0
  C  C84  1  0.12468306  0.74627913  0.88643945  1.0
  C  C85  1  0.03133014  0.74738097  0.89686504  1.0
  C  C86  1  0.95125212  0.74832596  0.90580792  1.0
  C  C87  1  0.15766614  0.74100454  0.81992547  1.0
  C  C88  1  0.17657773  0.68216156  0.79181783  1.0
  C  C89  1  0.21153238  0.67760710  0.73013344  1.0
  C  C90  1  0.22652467  0.73157823  0.69547899  1.0
  C  C91  1  0.20663775  0.79027960  0.72256149  1.0
  C  C92  1  0.17282695  0.79501697  0.78457354  1.0
  C  C93  1  0.13847704  0.75546116  0.00423302  1.0
  C  C94  1  0.64571716  0.51537179  0.90994319  1.0
  C  C95  1  0.58423716  0.47605114  0.93471618  1.0
  C  C96  1  0.59083073  0.41102854  0.92442278  1.0
  C  C97  1  0.65788512  0.38370958  0.88972100  1.0
  C  C98  1  0.71798530  0.42474756  0.86513192  1.0
  C  C99  1  0.71235816  0.48904212  0.87526962  1.0
  C  C100  1  0.66789241  0.22207873  0.90249222  1.0
  C  C101  1  0.63063154  0.11371513  0.92932482  1.0
  C  C102  1  0.55931253  0.07737906  0.93071767  1.0
  C  C103  1  0.56390005  0.01250160  0.92276699  1.0
  C  C104  1  0.64095562  0.98254206  0.91604211  1.0
  C  C105  1  0.71321025  0.01825598  0.91679171  1.0
  C  C106  1  0.70757660  0.08385125  0.92216156  1.0
  C  C107  1  0.64598968  0.74787136  0.67630253  1.0
  C  C108  1  0.63073993  0.69639105  0.63738494  1.0
  C  C109  1  0.66263870  0.69266883  0.57471251  1.0
  C  C110  1  0.71231302  0.73996287  0.54896223  1.0
  C  C111  1  0.72979304  0.79051703  0.58969798  1.0
  C  C112  1  0.69656604  0.79441469  0.65182468  1.0
  C  C113  1  0.72441517  0.69157380  0.43821048  1.0
  C  C114  1  0.67124109  0.72012475  0.38705849  1.0
  C  C115  1  0.69399861  0.75611221  0.27695653  1.0
  C  C116  1  0.61017059  0.75091013  0.26234771  1.0
  C  C117  1  0.58410255  0.74815276  0.20005182  1.0
  C  C118  1  0.64064983  0.75069346  0.14912891  1.0
  C  C119  1  0.72428539  0.75647724  0.16152974  1.0
  C  C120  1  0.74984909  0.75957594  0.22419920  1.0
  C  C121  1  0.79679801  0.81464172  0.41687588  1.0
  C  C122  1  0.64143266  0.75025768  0.07839078  1.0
  C  C123  1  0.64164034  0.91265038  0.91518370  1.0
  C  C124  1  0.64518723  0.74829106  0.74704136  1.0
  C  C125  1  0.85923591  0.74860936  0.90796902  1.0
  C  C126  1  0.64499643  0.58526380  0.91086819  1.0
  C  C127  1  0.42821764  0.74989437  0.91805187  1.0
  C  C128  1  0.66920517  0.08300091  0.25308710  1.0
  C  C129  1  0.59551783  0.08380761  0.26150548  1.0
  C  C130  1  0.50696796  0.08384654  0.26992486  1.0
  C  C131  1  0.45768306  0.07927913  0.21943945  1.0
  C  C132  1  0.36433014  0.08038097  0.22986504  1.0
  C  C133  1  0.28425212  0.08132596  0.23880792  1.0
  C  C134  1  0.49066614  0.07400454  0.15292547  1.0
  C  C135  1  0.50957773  0.01516156  0.12481783  1.0
  C  C136  1  0.54453238  0.01060710  0.06313344  1.0
  C  C137  1  0.55952467  0.06457823  0.02847899  1.0
  C  C138  1  0.53963775  0.12327960  0.05556149  1.0
  C  C139  1  0.50582695  0.12801697  0.11757354  1.0
  C  C140  1  0.47147704  0.08846116  0.33723302  1.0
  C  C141  1  0.97871716  0.84837179  0.24294319  1.0
  C  C142  1  0.91723716  0.80905114  0.26771618  1.0
  C  C143  1  0.92383073  0.74402854  0.25742278  1.0
  C  C144  1  0.99088512  0.71670958  0.22272100  1.0
  C  C145  1  0.05098530  0.75774756  0.19813192  1.0
  C  C146  1  0.04535816  0.82204212  0.20826962  1.0
  C  C147  1  0.00089241  0.55507873  0.23549222  1.0
  C  C148  1  0.96363154  0.44671513  0.26232482  1.0
  C  C149  1  0.89231253  0.41037906  0.26371767  1.0
  C  C150  1  0.89690005  0.34550160  0.25576699  1.0
  C  C151  1  0.97395562  0.31554206  0.24904211  1.0
  C  C152  1  0.04621025  0.35125598  0.24979171  1.0
  C  C153  1  0.04057660  0.41685125  0.25516156  1.0
  C  C154  1  0.97898968  0.08087136  0.00930253  1.0
  C  C155  1  0.96373993  0.02939105  0.97038494  1.0
  C  C156  1  0.99563870  0.02566883  0.90771251  1.0
  C  C157  1  0.04531302  0.07296287  0.88196223  1.0
  C  C158  1  0.06279304  0.12351703  0.92269798  1.0
  C  C159  1  0.02956604  0.12741469  0.98482468  1.0
  C  C160  1  0.05741517  0.02457380  0.77121048  1.0
  C  C161  1  0.00424109  0.05312475  0.72005849  1.0
  C  C162  1  0.02699861  0.08911221  0.60995653  1.0
  C  C163  1  0.94317059  0.08391013  0.59534771  1.0
  C  C164  1  0.91710255  0.08115276  0.53305182  1.0
  C  C165  1  0.97364983  0.08369346  0.48212891  1.0
  C  C166  1  0.05728539  0.08947724  0.49452974  1.0
  C  C167  1  0.08284909  0.09257594  0.55719920  1.0
  C  C168  1  0.12979801  0.14764172  0.74987588  1.0
  C  C169  1  0.97443266  0.08325768  0.41139078  1.0
  C  C170  1  0.97464034  0.24565038  0.24818370  1.0
  C  C171  1  0.97818723  0.08129106  0.08004136  1.0
  C  C172  1  0.19223591  0.08160936  0.24096902  1.0
  C  C173  1  0.97799643  0.91826380  0.24386819  1.0
  C  C174  1  0.76121764  0.08289437  0.25105187  1.0
  C  C175  1  0.00220517  0.41600091  0.58608710  1.0
  C  C176  1  0.92851783  0.41680761  0.59450548  1.0
  C  C177  1  0.83996796  0.41684654  0.60292486  1.0
  C  C178  1  0.79068306  0.41227913  0.55243945  1.0
  C  C179  1  0.69733014  0.41338097  0.56286504  1.0
  C  C180  1  0.61725212  0.41432596  0.57180792  1.0
  C  C181  1  0.82366614  0.40700454  0.48592547  1.0
  C  C182  1  0.84257773  0.34816156  0.45781783  1.0
  C  C183  1  0.87753238  0.34360710  0.39613344  1.0
  C  C184  1  0.89252467  0.39757823  0.36147899  1.0
  C  C185  1  0.87263775  0.45627960  0.38856149  1.0
  C  C186  1  0.83882695  0.46101697  0.45057354  1.0
  C  C187  1  0.80447704  0.42146116  0.67023302  1.0
  C  C188  1  0.31171716  0.18137179  0.57594319  1.0
  C  C189  1  0.25023716  0.14205114  0.60071618  1.0
  C  C190  1  0.25683073  0.07702854  0.59042278  1.0
  C  C191  1  0.32388512  0.04970958  0.55572100  1.0
  C  C192  1  0.38398530  0.09074756  0.53113192  1.0
  C  C193  1  0.37835816  0.15504212  0.54126962  1.0
  C  C194  1  0.33389241  0.88807873  0.56849222  1.0
  C  C195  1  0.29663154  0.77971513  0.59532482  1.0
  C  C196  1  0.22531253  0.74337906  0.59671767  1.0
  C  C197  1  0.22990005  0.67850160  0.58876699  1.0
  C  C198  1  0.30695562  0.64854206  0.58204211  1.0
  C  C199  1  0.37921025  0.68425598  0.58279171  1.0
  C  C200  1  0.37357660  0.74985125  0.58816156  1.0
  C  C201  1  0.31198968  0.41387136  0.34230253  1.0
  C  C202  1  0.29673993  0.36239105  0.30338494  1.0
  C  C203  1  0.32863870  0.35866883  0.24071251  1.0
  C  C204  1  0.37831302  0.40596287  0.21496223  1.0
  C  C205  1  0.39579304  0.45651703  0.25569798  1.0
  C  C206  1  0.36256604  0.46041469  0.31782468  1.0
  C  C207  1  0.39041517  0.35757380  0.10421048  1.0
  C  C208  1  0.33724109  0.38612475  0.05305849  1.0
  C  C209  1  0.35999861  0.42211221  0.94295653  1.0
  C  C210  1  0.27617059  0.41691013  0.92834771  1.0
  C  C211  1  0.25010255  0.41415276  0.86605182  1.0
  C  C212  1  0.30664983  0.41669346  0.81512891  1.0
  C  C213  1  0.39028539  0.42247724  0.82752974  1.0
  C  C214  1  0.41584909  0.42557594  0.89019920  1.0
  C  C215  1  0.46279801  0.48064172  0.08287588  1.0
  C  C216  1  0.30743266  0.41625768  0.74439078  1.0
  C  C217  1  0.30764034  0.57865038  0.58118370  1.0
  C  C218  1  0.31118723  0.41429106  0.41304136  1.0
  C  C219  1  0.52523591  0.41460936  0.57396902  1.0
  C  C220  1  0.31099643  0.25126380  0.57686819  1.0
  C  C221  1  0.09421764  0.41589437  0.58405187  1.0
  N  N222  1  0.66699638  0.31954866  0.87427332  1.0
  N  N223  1  0.64605104  0.28368110  0.91816855  1.0
  N  N224  1  0.62155626  0.17944864  0.93669969  1.0
  N  N225  1  0.74251909  0.74008704  0.48595587  1.0
  N  N226  1  0.71856666  0.75919509  0.34097833  1.0
  N  N227  1  0.79875521  0.78048495  0.35532228  1.0
  N  N228  1  0.99999638  0.65254866  0.20727332  1.0
  N  N229  1  0.97905104  0.61668110  0.25116855  1.0
  N  N230  1  0.95455626  0.51244864  0.26969969  1.0
  N  N231  1  0.07551909  0.07308704  0.81895587  1.0
  N  N232  1  0.05156666  0.09219509  0.67397833  1.0
  N  N233  1  0.13175521  0.11348495  0.68832228  1.0
  N  N234  1  0.33299638  0.98554866  0.54027332  1.0
  N  N235  1  0.31205104  0.94968110  0.58416855  1.0
  N  N236  1  0.28755626  0.84544864  0.60269969  1.0
  N  N237  1  0.40851909  0.40608704  0.15195587  1.0
  N  N238  1  0.38456666  0.42519509  0.00697833  1.0
  N  N239  1  0.46475521  0.44648495  0.02132228  1.0
  O  O240  1  0.72102055  0.20598295  0.86197561  1.0
  O  O241  1  0.81345288  0.77472738  0.46945808  1.0
  O  O242  1  0.64330663  0.74927639  0.91303897  1.0
  O  O243  1  0.69616059  0.70965589  0.76907365  1.0
  O  O244  1  0.45829994  0.78823443  0.87880863  1.0
  O  O245  1  0.59346866  0.60910668  0.95145909  1.0
  O  O246  1  0.59367670  0.78720772  0.77248370  1.0
  O  O247  1  0.69604218  0.60832842  0.87089844  1.0
  O  O248  1  0.45820938  0.71146018  0.95595946  1.0
  O  O249  1  0.59124782  0.71165823  0.05598163  1.0
  O  O250  1  0.82751609  0.78755632  0.94829156  1.0
  O  O251  1  0.69213933  0.78858298  0.05461651  1.0
  O  O252  1  0.82919903  0.70985399  0.86909581  1.0
  O  O253  1  0.59145680  0.88975996  0.87700606  1.0
  O  O254  1  0.69225776  0.88990968  0.95279174  1.0
  O  O255  1  0.05402055  0.53898295  0.19497561  1.0
  O  O256  1  0.14645288  0.10772738  0.80245808  1.0
  O  O257  1  0.97630663  0.08227639  0.24603897  1.0
  O  O258  1  0.02916059  0.04265589  0.10207365  1.0
  O  O259  1  0.79129994  0.12123443  0.21180863  1.0
  O  O260  1  0.92646866  0.94210668  0.28445909  1.0
  O  O261  1  0.92667670  0.12020772  0.10548370  1.0
  O  O262  1  0.02904218  0.94132842  0.20389844  1.0
  O  O263  1  0.79120938  0.04446018  0.28895946  1.0
  O  O264  1  0.92424782  0.04465823  0.38898163  1.0
  O  O265  1  0.16051609  0.12055632  0.28129156  1.0
  O  O266  1  0.02513933  0.12158298  0.38761651  1.0
  O  O267  1  0.16219903  0.04285399  0.20209581  1.0
  O  O268  1  0.92445680  0.22275996  0.21000606  1.0
  O  O269  1  0.02525776  0.22290968  0.28579174  1.0
  O  O270  1  0.38702055  0.87198295  0.52797561  1.0
  O  O271  1  0.47945288  0.44072738  0.13545808  1.0
  O  O272  1  0.30930663  0.41527639  0.57903897  1.0
  O  O273  1  0.36216059  0.37565589  0.43507365  1.0
  O  O274  1  0.12429994  0.45423443  0.54480863  1.0
  O  O275  1  0.25946866  0.27510668  0.61745909  1.0
  O  O276  1  0.25967670  0.45320772  0.43848370  1.0
  O  O277  1  0.36204218  0.27432842  0.53689844  1.0
  O  O278  1  0.12420938  0.37746018  0.62195946  1.0
  O  O279  1  0.25724782  0.37765823  0.72198163  1.0
  O  O280  1  0.49351609  0.45355632  0.61429156  1.0
  O  O281  1  0.35813933  0.45458298  0.72061651  1.0
  O  O282  1  0.49519903  0.37585399  0.53509581  1.0
  O  O283  1  0.25745680  0.55575996  0.54300606  1.0
  O  O284  1  0.35825776  0.55590968  0.61879174  1.0
  F  F285  1  0.77207675  0.52613002  0.85163626  1.0
  F  F286  1  0.78307408  0.40143616  0.83094660  1.0
  F  F287  1  0.48492601  0.10556952  0.93701805  1.0
  F  F288  1  0.53037900  0.37512639  0.94873415  1.0
  F  F289  1  0.58275206  0.64941495  0.65760458  1.0
  F  F290  1  0.71231098  0.84558403  0.68715383  1.0
  F  F291  1  0.55147516  0.74970963  0.30910947  1.0
  F  F292  1  0.83117544  0.76545297  0.23221843  1.0
  F  F293  1  0.50307846  0.74321873  0.19015653  1.0
  F  F294  1  0.10507675  0.85913002  0.18463626  1.0
  F  F295  1  0.11607408  0.73443616  0.16394660  1.0
  F  F296  1  0.81792601  0.43856952  0.27001805  1.0
  F  F297  1  0.86337900  0.70812639  0.28173415  1.0
  F  F298  1  0.91575206  0.98241495  0.99060458  1.0
  F  F299  1  0.04531098  0.17858403  0.02015383  1.0
  F  F300  1  0.88447516  0.08270963  0.64210947  1.0
  F  F301  1  0.16417544  0.09845297  0.56521843  1.0
  F  F302  1  0.83607846  0.07621873  0.52315653  1.0
  F  F303  1  0.43807675  0.19213002  0.51763626  1.0
  F  F304  1  0.44907408  0.06743616  0.49694660  1.0
  F  F305  1  0.15092601  0.77156952  0.60301805  1.0
  F  F306  1  0.19637900  0.04112639  0.61473415  1.0
  F  F307  1  0.24875206  0.31541495  0.32360458  1.0
  F  F308  1  0.37831098  0.51158403  0.35315383  1.0
  F  F309  1  0.21747516  0.41570963  0.97510947  1.0
  F  F310  1  0.49717544  0.43145297  0.89821843  1.0
  F  F311  1  0.16907846  0.40921873  0.85615653  1.0
