# generated using pymatgen
data_Zn4H25C61N2ClO15F16
_symmetry_space_group_name_H-M   'P 1'
_cell_length_a   21.50396964
_cell_length_b   21.65478891
_cell_length_c   21.06214551
_cell_angle_alpha   90.10172107
_cell_angle_beta   90.56714273
_cell_angle_gamma   90.10874588
_symmetry_Int_Tables_number   1
_chemical_formula_structural   Zn4H25C61N2ClO15F16
_chemical_formula_sum   'Zn16 H100 C244 N8 Cl4 O60 F64'
_cell_volume   9807.36737332
_cell_formula_units_Z   4
loop_
 _symmetry_equiv_pos_site_id
 _symmetry_equiv_pos_as_xyz
  1  'x, y, z'
loop_
 _atom_site_type_symbol
 _atom_site_label
 _atom_site_symmetry_multiplicity
 _atom_site_fract_x
 _atom_site_fract_y
 _atom_site_fract_z
 _atom_site_occupancy
  Zn  Zn0  1  0.77867506  0.70076231  0.85454690  1.0
  Zn  Zn1  1  0.67466660  0.80427448  0.85469617  1.0
  Zn  Zn2  1  0.67554222  0.70087477  0.96101932  1.0
  Zn  Zn3  1  0.77997786  0.80435648  0.96105177  1.0
  Zn  Zn4  1  0.02867506  0.95076231  0.10454690  1.0
  Zn  Zn5  1  0.92466660  0.05427448  0.10469617  1.0
  Zn  Zn6  1  0.92554222  0.95087477  0.21101932  1.0
  Zn  Zn7  1  0.02997786  0.05435648  0.21105177  1.0
  Zn  Zn8  1  0.27867506  0.20076231  0.35454690  1.0
  Zn  Zn9  1  0.17466660  0.30427448  0.35469617  1.0
  Zn  Zn10  1  0.17554222  0.20087477  0.46101932  1.0
  Zn  Zn11  1  0.27997786  0.30435648  0.46105177  1.0
  Zn  Zn12  1  0.52867506  0.45076231  0.60454690  1.0
  Zn  Zn13  1  0.42466660  0.55427448  0.60469617  1.0
  Zn  Zn14  1  0.42554222  0.45087477  0.71101932  1.0
  Zn  Zn15  1  0.52997786  0.55435648  0.71105177  1.0
  H  H16  1  0.48670187  0.82375376  0.83624922  1.0
  H  H17  1  0.28402875  0.73641619  0.00884275  1.0
  H  H18  1  0.17197527  0.73638955  0.00858348  1.0
  H  H19  1  0.08193516  0.68168210  0.97883736  1.0
  H  H20  1  0.96657967  0.82314132  0.83524589  1.0
  H  H21  1  0.17079043  0.76954757  0.80629670  1.0
  H  H22  1  0.74505769  0.39968849  0.00525336  1.0
  H  H23  1  0.69834417  0.98767332  0.80950920  1.0
  H  H24  1  0.75152366  0.10623717  0.00348698  1.0
  H  H25  1  0.83788312  0.13916100  0.95351951  1.0
  H  H26  1  0.83165131  0.19590228  0.01368783  1.0
  H  H27  1  0.87713603  0.20703939  0.94357934  1.0
  H  H28  1  0.86997308  0.29180581  0.97739678  1.0
  H  H29  1  0.81593475  0.34103390  0.00811758  1.0
  H  H30  1  0.84948050  0.35515491  0.93133404  1.0
  H  H31  1  0.58335960  0.21207377  0.83085096  1.0
  H  H32  1  0.60772407  0.14579413  0.86939600  1.0
  H  H33  1  0.63900344  0.16859566  0.79373032  1.0
  H  H34  1  0.61520744  0.36499645  0.85642508  1.0
  H  H35  1  0.57647527  0.29676333  0.86640309  1.0
  H  H36  1  0.61934312  0.30937121  0.79484776  1.0
  H  H37  1  0.72944442  0.64464926  0.55264929  1.0
  H  H38  1  0.73347029  0.76991619  0.36548633  1.0
  H  H39  1  0.65093957  0.69009445  0.14717403  1.0
  H  H40  1  0.81236591  0.80067790  0.27348685  1.0
  H  H41  1  0.73670187  0.07375376  0.08624922  1.0
  H  H42  1  0.53402875  0.98641619  0.25884275  1.0
  H  H43  1  0.42197527  0.98638955  0.25858348  1.0
  H  H44  1  0.33193516  0.93168210  0.22883736  1.0
  H  H45  1  0.21657967  0.07314132  0.08524589  1.0
  H  H46  1  0.42079043  0.01954757  0.05629670  1.0
  H  H47  1  0.99505769  0.64968849  0.25525336  1.0
  H  H48  1  0.94834417  0.23767332  0.05950920  1.0
  H  H49  1  0.00152366  0.35623717  0.25348698  1.0
  H  H50  1  0.08788312  0.38916100  0.20351951  1.0
  H  H51  1  0.08165131  0.44590228  0.26368783  1.0
  H  H52  1  0.12713603  0.45703939  0.19357934  1.0
  H  H53  1  0.11997308  0.54180581  0.22739678  1.0
  H  H54  1  0.06593475  0.59103390  0.25811758  1.0
  H  H55  1  0.09948050  0.60515491  0.18133404  1.0
  H  H56  1  0.83335960  0.46207377  0.08085096  1.0
  H  H57  1  0.85772407  0.39579413  0.11939600  1.0
  H  H58  1  0.88900344  0.41859566  0.04373032  1.0
  H  H59  1  0.86520744  0.61499645  0.10642508  1.0
  H  H60  1  0.82647527  0.54676333  0.11640309  1.0
  H  H61  1  0.86934312  0.55937121  0.04484776  1.0
  H  H62  1  0.97944442  0.89464926  0.80264929  1.0
  H  H63  1  0.98347029  0.01991619  0.61548633  1.0
  H  H64  1  0.90093957  0.94009445  0.39717403  1.0
  H  H65  1  0.06236591  0.05067790  0.52348685  1.0
  H  H66  1  0.98670187  0.32375376  0.33624922  1.0
  H  H67  1  0.78402875  0.23641619  0.50884275  1.0
  H  H68  1  0.67197527  0.23638955  0.50858348  1.0
  H  H69  1  0.58193516  0.18168210  0.47883736  1.0
  H  H70  1  0.46657967  0.32314132  0.33524589  1.0
  H  H71  1  0.67079043  0.26954757  0.30629670  1.0
  H  H72  1  0.24505769  0.89968849  0.50525336  1.0
  H  H73  1  0.19834417  0.48767332  0.30950920  1.0
  H  H74  1  0.25152366  0.60623717  0.50348698  1.0
  H  H75  1  0.33788312  0.63916100  0.45351951  1.0
  H  H76  1  0.33165131  0.69590228  0.51368783  1.0
  H  H77  1  0.37713603  0.70703939  0.44357934  1.0
  H  H78  1  0.36997308  0.79180581  0.47739678  1.0
  H  H79  1  0.31593475  0.84103390  0.50811758  1.0
  H  H80  1  0.34948050  0.85515491  0.43133404  1.0
  H  H81  1  0.08335960  0.71207377  0.33085096  1.0
  H  H82  1  0.10772407  0.64579413  0.36939600  1.0
  H  H83  1  0.13900344  0.66859566  0.29373032  1.0
  H  H84  1  0.11520744  0.86499645  0.35642508  1.0
  H  H85  1  0.07647527  0.79676333  0.36640309  1.0
  H  H86  1  0.11934312  0.80937121  0.29484776  1.0
  H  H87  1  0.22944442  0.14464926  0.05264929  1.0
  H  H88  1  0.23347029  0.26991619  0.86548633  1.0
  H  H89  1  0.15093957  0.19009445  0.64717403  1.0
  H  H90  1  0.31236591  0.30067790  0.77348685  1.0
  H  H91  1  0.23670187  0.57375376  0.58624922  1.0
  H  H92  1  0.03402875  0.48641619  0.75884275  1.0
  H  H93  1  0.92197527  0.48638955  0.75858348  1.0
  H  H94  1  0.83193516  0.43168210  0.72883736  1.0
  H  H95  1  0.71657967  0.57314132  0.58524589  1.0
  H  H96  1  0.92079043  0.51954757  0.55629670  1.0
  H  H97  1  0.49505769  0.14968849  0.75525336  1.0
  H  H98  1  0.44834417  0.73767332  0.55950920  1.0
  H  H99  1  0.50152366  0.85623717  0.75348698  1.0
  H  H100  1  0.58788312  0.88916100  0.70351951  1.0
  H  H101  1  0.58165131  0.94590228  0.76368783  1.0
  H  H102  1  0.62713603  0.95703939  0.69357934  1.0
  H  H103  1  0.61997308  0.04180581  0.72739678  1.0
  H  H104  1  0.56593475  0.09103390  0.75811758  1.0
  H  H105  1  0.59948050  0.10515491  0.68133404  1.0
  H  H106  1  0.33333333  0.96207377  0.58085096  1.0
  H  H107  1  0.35772407  0.89579413  0.61939600  1.0
  H  H108  1  0.38900344  0.91859566  0.54373032  1.0
  H  H109  1  0.36520744  0.11499645  0.60642508  1.0
  H  H110  1  0.32647527  0.04676333  0.61640309  1.0
  H  H111  1  0.36934312  0.05937121  0.54484776  1.0
  H  H112  1  0.47944442  0.39464926  0.30264929  1.0
  H  H113  1  0.48347029  0.51991619  0.11548633  1.0
  H  H114  1  0.40093957  0.44009445  0.89717403  1.0
  H  H115  1  0.56236591  0.55067790  0.02348685  1.0
  C  C116  1  0.49596026  0.75238136  0.90779872  1.0
  C  C117  1  0.46297248  0.71358456  0.94764467  1.0
  C  C118  1  0.39803060  0.71357689  0.94723861  1.0
  C  C119  1  0.36315576  0.75310432  0.90792849  1.0
  C  C120  1  0.39784575  0.79297893  0.86923465  1.0
  C  C121  1  0.46277260  0.79230561  0.86810289  1.0
  C  C122  1  0.29425027  0.75296700  0.90769956  1.0
  C  C123  1  0.26033151  0.74378021  0.96355614  1.0
  C  C124  1  0.19504594  0.74373206  0.96340880  1.0
  C  C125  1  0.16032868  0.75350601  0.90752895  1.0
  C  C126  1  0.09150317  0.75356493  0.90741061  1.0
  C  C127  1  0.05809157  0.71383330  0.94738686  1.0
  C  C128  1  0.99317353  0.71381274  0.94750745  1.0
  C  C129  1  0.95910179  0.75253390  0.90769778  1.0
  C  C130  1  0.99129137  0.79212809  0.86725930  1.0
  C  C131  1  0.05620703  0.79258277  0.86768834  1.0
  C  C132  1  0.19408160  0.76231302  0.85173729  1.0
  C  C133  1  0.25905928  0.76143662  0.85199540  1.0
  C  C134  1  0.72673960  0.52229411  0.90762610  1.0
  C  C135  1  0.74175644  0.48739765  0.96076647  1.0
  C  C136  1  0.73739811  0.42292581  0.96026681  1.0
  C  C137  1  0.72493216  0.38943385  0.90440906  1.0
  C  C138  1  0.71196461  0.42564507  0.85040258  1.0
  C  C139  1  0.70951526  0.49037261  0.85277563  1.0
  C  C140  1  0.72564525  0.31975511  0.90375294  1.0
  C  C141  1  0.67605412  0.28472035  0.87579464  1.0
  C  C142  1  0.67773177  0.21819757  0.87408113  1.0
  C  C143  1  0.72847292  0.18433165  0.90183666  1.0
  C  C144  1  0.72858633  0.11455281  0.90292265  1.0
  C  C145  1  0.71652417  0.07746294  0.84910813  1.0
  C  C146  1  0.71236848  0.01304604  0.85195965  1.0
  C  C147  1  0.72772910  0.98221179  0.90794770  1.0
  C  C148  1  0.74403878  0.01734220  0.96074420  1.0
  C  C149  1  0.74114755  0.08186477  0.95943867  1.0
  C  C150  1  0.77781740  0.21941426  0.93064568  1.0
  C  C151  1  0.83363048  0.18850041  0.96216296  1.0
  C  C152  1  0.77648994  0.28593101  0.93158266  1.0
  C  C153  1  0.83051012  0.32034563  0.96336631  1.0
  C  C154  1  0.62449577  0.18420639  0.84061034  1.0
  C  C155  1  0.61920666  0.31582715  0.84652056  1.0
  C  C156  1  0.72479201  0.75235094  0.67106481  1.0
  C  C157  1  0.73116952  0.69570880  0.64009365  1.0
  C  C158  1  0.72366783  0.68989472  0.57429082  1.0
  C  C159  1  0.70942699  0.74200680  0.53773888  1.0
  C  C160  1  0.70300391  0.79884770  0.56840338  1.0
  C  C161  1  0.71059740  0.80388956  0.63410329  1.0
  C  C162  1  0.70290932  0.73858300  0.46729421  1.0
  C  C163  1  0.72781685  0.67785125  0.38068388  1.0
  C  C164  1  0.73768231  0.61091264  0.35398566  1.0
  C  C165  1  0.73608989  0.73532924  0.27704306  1.0
  C  C166  1  0.69004259  0.70626138  0.24002791  1.0
  C  C167  1  0.68681808  0.71427110  0.17427563  1.0
  C  C168  1  0.72964745  0.75279851  0.14394619  1.0
  C  C169  1  0.77384270  0.78376854  0.18091130  1.0
  C  C170  1  0.77686067  0.77587575  0.24655589  1.0
  C  C171  1  0.72890882  0.75271815  0.07319962  1.0
  C  C172  1  0.72756123  0.91340482  0.90795297  1.0
  C  C173  1  0.72551572  0.75241543  0.74181182  1.0
  C  C174  1  0.88981269  0.75254323  0.90773730  1.0
  C  C175  1  0.72688156  0.59110100  0.90768658  1.0
  C  C176  1  0.56525059  0.75254549  0.90788289  1.0
  C  C177  1  0.74596026  0.00238136  0.15779872  1.0
  C  C178  1  0.71297248  0.96358456  0.19764467  1.0
  C  C179  1  0.64803060  0.96357689  0.19723861  1.0
  C  C180  1  0.61315576  0.00310432  0.15792849  1.0
  C  C181  1  0.64784575  0.04297893  0.11923465  1.0
  C  C182  1  0.71277260  0.04230561  0.11810289  1.0
  C  C183  1  0.54425027  0.00296700  0.15769956  1.0
  C  C184  1  0.51033151  0.99378021  0.21355614  1.0
  C  C185  1  0.44504594  0.99373206  0.21340880  1.0
  C  C186  1  0.41032868  0.00350601  0.15752895  1.0
  C  C187  1  0.34150317  0.00356493  0.15741061  1.0
  C  C188  1  0.30809157  0.96383330  0.19738686  1.0
  C  C189  1  0.24317353  0.96381274  0.19750745  1.0
  C  C190  1  0.20910179  0.00253390  0.15769778  1.0
  C  C191  1  0.24129137  0.04212809  0.11725930  1.0
  C  C192  1  0.30620703  0.04258277  0.11768834  1.0
  C  C193  1  0.44408160  0.01231302  0.10173729  1.0
  C  C194  1  0.50905928  0.01143662  0.10199540  1.0
  C  C195  1  0.97673960  0.77229411  0.15762610  1.0
  C  C196  1  0.99175644  0.73739765  0.21076647  1.0
  C  C197  1  0.98739811  0.67292581  0.21026681  1.0
  C  C198  1  0.97493216  0.63943385  0.15440906  1.0
  C  C199  1  0.96196461  0.67564507  0.10040258  1.0
  C  C200  1  0.95951526  0.74037261  0.10277563  1.0
  C  C201  1  0.97564525  0.56975511  0.15375294  1.0
  C  C202  1  0.92605412  0.53472035  0.12579464  1.0
  C  C203  1  0.92773177  0.46819757  0.12408113  1.0
  C  C204  1  0.97847292  0.43433165  0.15183666  1.0
  C  C205  1  0.97858633  0.36455281  0.15292265  1.0
  C  C206  1  0.96652417  0.32746294  0.09910813  1.0
  C  C207  1  0.96236848  0.26304604  0.10195965  1.0
  C  C208  1  0.97772910  0.23221179  0.15794770  1.0
  C  C209  1  0.99403878  0.26734220  0.21074420  1.0
  C  C210  1  0.99114755  0.33186477  0.20943867  1.0
  C  C211  1  0.02781740  0.46941426  0.18064568  1.0
  C  C212  1  0.08363048  0.43850041  0.21216296  1.0
  C  C213  1  0.02648994  0.53593101  0.18158266  1.0
  C  C214  1  0.08051012  0.57034563  0.21336631  1.0
  C  C215  1  0.87449577  0.43420639  0.09061034  1.0
  C  C216  1  0.86920666  0.56582715  0.09652056  1.0
  C  C217  1  0.97479201  0.00235094  0.92106481  1.0
  C  C218  1  0.98116952  0.94570880  0.89009365  1.0
  C  C219  1  0.97366783  0.93989472  0.82429082  1.0
  C  C220  1  0.95942699  0.99200680  0.78773888  1.0
  C  C221  1  0.95300391  0.04884770  0.81840338  1.0
  C  C222  1  0.96059740  0.05388956  0.88410329  1.0
  C  C223  1  0.95290932  0.98858300  0.71729421  1.0
  C  C224  1  0.97781685  0.92785125  0.63068388  1.0
  C  C225  1  0.98768231  0.86091264  0.60398566  1.0
  C  C226  1  0.98608989  0.98532924  0.52704306  1.0
  C  C227  1  0.94004259  0.95626138  0.49002791  1.0
  C  C228  1  0.93681808  0.96427110  0.42427563  1.0
  C  C229  1  0.97964745  0.00279851  0.39394619  1.0
  C  C230  1  0.02384270  0.03376854  0.43091130  1.0
  C  C231  1  0.02686067  0.02587575  0.49655589  1.0
  C  C232  1  0.97890882  0.00271815  0.32319962  1.0
  C  C233  1  0.97756123  0.16340482  0.15795297  1.0
  C  C234  1  0.97551572  0.00241543  0.99181182  1.0
  C  C235  1  0.13981269  0.00254323  0.15773730  1.0
  C  C236  1  0.97688156  0.84110100  0.15768658  1.0
  C  C237  1  0.81525059  0.00254549  0.15788289  1.0
  C  C238  1  0.99596026  0.25238136  0.40779872  1.0
  C  C239  1  0.96297248  0.21358456  0.44764467  1.0
  C  C240  1  0.89803060  0.21357689  0.44723861  1.0
  C  C241  1  0.86315576  0.25310432  0.40792849  1.0
  C  C242  1  0.89784575  0.29297893  0.36923465  1.0
  C  C243  1  0.96277260  0.29230561  0.36810289  1.0
  C  C244  1  0.79425027  0.25296700  0.40769956  1.0
  C  C245  1  0.76033151  0.24378021  0.46355614  1.0
  C  C246  1  0.69504594  0.24373206  0.46340880  1.0
  C  C247  1  0.66032868  0.25350601  0.40752895  1.0
  C  C248  1  0.59150317  0.25356493  0.40741061  1.0
  C  C249  1  0.55809157  0.21383330  0.44738686  1.0
  C  C250  1  0.49317353  0.21381274  0.44750745  1.0
  C  C251  1  0.45910179  0.25253390  0.40769778  1.0
  C  C252  1  0.49129137  0.29212809  0.36725930  1.0
  C  C253  1  0.55620703  0.29258277  0.36768834  1.0
  C  C254  1  0.69408160  0.26231302  0.35173729  1.0
  C  C255  1  0.75905928  0.26143662  0.35199540  1.0
  C  C256  1  0.22673960  0.02229411  0.40762610  1.0
  C  C257  1  0.24175644  0.98739765  0.46076647  1.0
  C  C258  1  0.23739811  0.92292581  0.46026681  1.0
  C  C259  1  0.22493216  0.88943385  0.40440906  1.0
  C  C260  1  0.21196461  0.92564507  0.35040258  1.0
  C  C261  1  0.20951526  0.99037261  0.35277563  1.0
  C  C262  1  0.22564525  0.81975511  0.40375294  1.0
  C  C263  1  0.17605412  0.78472035  0.37579464  1.0
  C  C264  1  0.17773177  0.71819757  0.37408113  1.0
  C  C265  1  0.22847292  0.68433165  0.40183666  1.0
  C  C266  1  0.22858633  0.61455281  0.40292265  1.0
  C  C267  1  0.21652417  0.57746294  0.34910813  1.0
  C  C268  1  0.21236848  0.51304604  0.35195965  1.0
  C  C269  1  0.22772910  0.48221179  0.40794770  1.0
  C  C270  1  0.24403878  0.51734220  0.46074420  1.0
  C  C271  1  0.24114755  0.58186477  0.45943867  1.0
  C  C272  1  0.27781740  0.71941426  0.43064568  1.0
  C  C273  1  0.33363048  0.68850041  0.46216296  1.0
  C  C274  1  0.27648994  0.78593101  0.43158266  1.0
  C  C275  1  0.33051012  0.82034563  0.46336631  1.0
  C  C276  1  0.12449577  0.68420639  0.34061034  1.0
  C  C277  1  0.11920666  0.81582715  0.34652056  1.0
  C  C278  1  0.22479201  0.25235094  0.17106481  1.0
  C  C279  1  0.23116952  0.19570880  0.14009365  1.0
  C  C280  1  0.22366783  0.18989472  0.07429082  1.0
  C  C281  1  0.20942699  0.24200680  0.03773888  1.0
  C  C282  1  0.20300391  0.29884770  0.06840338  1.0
  C  C283  1  0.21059740  0.30388956  0.13410329  1.0
  C  C284  1  0.20290932  0.23858300  0.96729421  1.0
  C  C285  1  0.22781685  0.17785125  0.88068388  1.0
  C  C286  1  0.23768231  0.11091264  0.85398566  1.0
  C  C287  1  0.23608989  0.23532924  0.77704306  1.0
  C  C288  1  0.19004259  0.20626138  0.74002791  1.0
  C  C289  1  0.18681808  0.21427110  0.67427563  1.0
  C  C290  1  0.22964745  0.25279851  0.64394619  1.0
  C  C291  1  0.27384270  0.28376854  0.68091130  1.0
  C  C292  1  0.27686067  0.27587575  0.74655589  1.0
  C  C293  1  0.22890882  0.25271815  0.57319962  1.0
  C  C294  1  0.22756123  0.41340482  0.40795297  1.0
  C  C295  1  0.22551572  0.25241543  0.24181182  1.0
  C  C296  1  0.38981269  0.25254323  0.40773730  1.0
  C  C297  1  0.22688156  0.09110100  0.40768658  1.0
  C  C298  1  0.06525059  0.25254549  0.40788289  1.0
  C  C299  1  0.24596026  0.50238136  0.65779872  1.0
  C  C300  1  0.21297248  0.46358456  0.69764467  1.0
  C  C301  1  0.14803060  0.46357689  0.69723861  1.0
  C  C302  1  0.11315576  0.50310432  0.65792849  1.0
  C  C303  1  0.14784575  0.54297893  0.61923465  1.0
  C  C304  1  0.21277260  0.54230561  0.61810289  1.0
  C  C305  1  0.04425027  0.50296700  0.65769956  1.0
  C  C306  1  0.01033151  0.49378021  0.71355614  1.0
  C  C307  1  0.94504594  0.49373206  0.71340880  1.0
  C  C308  1  0.91032868  0.50350601  0.65752895  1.0
  C  C309  1  0.84150317  0.50356493  0.65741061  1.0
  C  C310  1  0.80809157  0.46383330  0.69738686  1.0
  C  C311  1  0.74317353  0.46381274  0.69750745  1.0
  C  C312  1  0.70910179  0.50253390  0.65769778  1.0
  C  C313  1  0.74129137  0.54212809  0.61725930  1.0
  C  C314  1  0.80620703  0.54258277  0.61768834  1.0
  C  C315  1  0.94408160  0.51231302  0.60173729  1.0
  C  C316  1  0.00905928  0.51143662  0.60199540  1.0
  C  C317  1  0.47673960  0.27229411  0.65762610  1.0
  C  C318  1  0.49175644  0.23739765  0.71076647  1.0
  C  C319  1  0.48739811  0.17292581  0.71026681  1.0
  C  C320  1  0.47493216  0.13943385  0.65440906  1.0
  C  C321  1  0.46196461  0.17564507  0.60040258  1.0
  C  C322  1  0.45951526  0.24037261  0.60277563  1.0
  C  C323  1  0.47564525  0.06975511  0.65375294  1.0
  C  C324  1  0.42605412  0.03472035  0.62579464  1.0
  C  C325  1  0.42773177  0.96819757  0.62408113  1.0
  C  C326  1  0.47847292  0.93433165  0.65183666  1.0
  C  C327  1  0.47858633  0.86455281  0.65292265  1.0
  C  C328  1  0.46652417  0.82746294  0.59910813  1.0
  C  C329  1  0.46236848  0.76304604  0.60195965  1.0
  C  C330  1  0.47772910  0.73221179  0.65794770  1.0
  C  C331  1  0.49403878  0.76734220  0.71074420  1.0
  C  C332  1  0.49114755  0.83186477  0.70943867  1.0
  C  C333  1  0.52781740  0.96941426  0.68064568  1.0
  C  C334  1  0.58363048  0.93850041  0.71216296  1.0
  C  C335  1  0.52648994  0.03593101  0.68158266  1.0
  C  C336  1  0.58051012  0.07034563  0.71336631  1.0
  C  C337  1  0.37449577  0.93420639  0.59061034  1.0
  C  C338  1  0.36920666  0.06582715  0.59652056  1.0
  C  C339  1  0.47479201  0.50235094  0.42106481  1.0
  C  C340  1  0.48116952  0.44570880  0.39009365  1.0
  C  C341  1  0.47366783  0.43989472  0.32429082  1.0
  C  C342  1  0.45942699  0.49200680  0.28773888  1.0
  C  C343  1  0.45300391  0.54884770  0.31840338  1.0
  C  C344  1  0.46059740  0.55388956  0.38410329  1.0
  C  C345  1  0.45290932  0.48858300  0.21729421  1.0
  C  C346  1  0.47781685  0.42785125  0.13068388  1.0
  C  C347  1  0.48768231  0.36091264  0.10398566  1.0
  C  C348  1  0.48608989  0.48532924  0.02704306  1.0
  C  C349  1  0.44004259  0.45626138  0.99002791  1.0
  C  C350  1  0.43681808  0.46427110  0.92427563  1.0
  C  C351  1  0.47964745  0.50279851  0.89394619  1.0
  C  C352  1  0.52384270  0.53376854  0.93091130  1.0
  C  C353  1  0.52686067  0.52587575  0.99655589  1.0
  C  C354  1  0.47890882  0.50271815  0.82319962  1.0
  C  C355  1  0.47756123  0.66340482  0.65795297  1.0
  C  C356  1  0.47551572  0.50241543  0.49181182  1.0
  C  C357  1  0.63981269  0.50254323  0.65773730  1.0
  C  C358  1  0.47688156  0.34110100  0.65768658  1.0
  C  C359  1  0.31525059  0.50254549  0.65788289  1.0
  N  N360  1  0.71078422  0.68139152  0.44022370  1.0
  N  N361  1  0.74263333  0.72876309  0.34339457  1.0
  N  N362  1  0.96078422  0.93139152  0.69022370  1.0
  N  N363  1  0.99263333  0.97876309  0.59339457  1.0
  N  N364  1  0.21078422  0.18139152  0.94022370  1.0
  N  N365  1  0.24263333  0.22876309  0.84339457  1.0
  N  N366  1  0.46078422  0.43139152  0.19022370  1.0
  N  N367  1  0.49263333  0.47876309  0.09339457  1.0
  Cl  Cl368  1  0.72112100  0.55265138  0.40799974  1.0
  Cl  Cl369  1  0.97112100  0.80265138  0.65799974  1.0
  Cl  Cl370  1  0.22112100  0.05265138  0.90799974  1.0
  Cl  Cl371  1  0.47112100  0.30265138  0.15799974  1.0
  O  O372  1  0.69290836  0.78549456  0.43645383  1.0
  O  O373  1  0.75884200  0.60334304  0.30078720  1.0
  O  O374  1  0.72721583  0.75256718  0.90782866  1.0
  O  O375  1  0.76396644  0.71441207  0.76549684  1.0
  O  O376  1  0.58754855  0.79057080  0.86884946  1.0
  O  O377  1  0.68904417  0.61423205  0.94681963  1.0
  O  O378  1  0.68755172  0.79046188  0.76560694  1.0
  O  O379  1  0.76481551  0.61414919  0.86859450  1.0
  O  O380  1  0.58819123  0.71460318  0.94696470  1.0
  O  O381  1  0.69030732  0.71468283  0.05009318  1.0
  O  O382  1  0.86703944  0.79060235  0.94687472  1.0
  O  O383  1  0.76703627  0.79071123  0.05011724  1.0
  O  O384  1  0.86608253  0.71449176  0.86862532  1.0
  O  O385  1  0.68881558  0.89091334  0.86888033  1.0
  O  O386  1  0.76618721  0.89097336  0.94701961  1.0
  O  O387  1  0.94290836  0.03549456  0.68645383  1.0
  O  O388  1  0.00884200  0.85334304  0.55078720  1.0
  O  O389  1  0.97721583  0.00256718  0.15782866  1.0
  O  O390  1  0.01396644  0.96441207  0.01549684  1.0
  O  O391  1  0.83754855  0.04057080  0.11884946  1.0
  O  O392  1  0.93904417  0.86423205  0.19681963  1.0
  O  O393  1  0.93755172  0.04046188  0.01560694  1.0
  O  O394  1  0.01481551  0.86414919  0.11859450  1.0
  O  O395  1  0.83819123  0.96460318  0.19696470  1.0
  O  O396  1  0.94030732  0.96468283  0.30009318  1.0
  O  O397  1  0.11703944  0.04060235  0.19687472  1.0
  O  O398  1  0.01703627  0.04071123  0.30011724  1.0
  O  O399  1  0.11608253  0.96449176  0.11862532  1.0
  O  O400  1  0.93881558  0.14091334  0.11888033  1.0
  O  O401  1  0.01618721  0.14097336  0.19701961  1.0
  O  O402  1  0.19290836  0.28549456  0.93645383  1.0
  O  O403  1  0.25884200  0.10334304  0.80078720  1.0
  O  O404  1  0.22721583  0.25256718  0.40782866  1.0
  O  O405  1  0.26396644  0.21441207  0.26549684  1.0
  O  O406  1  0.08754855  0.29057080  0.36884946  1.0
  O  O407  1  0.18904417  0.11423205  0.44681963  1.0
  O  O408  1  0.18755172  0.29046188  0.26560694  1.0
  O  O409  1  0.26481551  0.11414919  0.36859450  1.0
  O  O410  1  0.08819123  0.21460318  0.44696470  1.0
  O  O411  1  0.19030732  0.21468283  0.55009318  1.0
  O  O412  1  0.36703944  0.29060235  0.44687472  1.0
  O  O413  1  0.26703627  0.29071123  0.55011724  1.0
  O  O414  1  0.36608253  0.21449176  0.36862532  1.0
  O  O415  1  0.18881558  0.39091334  0.36888033  1.0
  O  O416  1  0.26618721  0.39097336  0.44701961  1.0
  O  O417  1  0.44290836  0.53549456  0.18645383  1.0
  O  O418  1  0.50884200  0.35334304  0.05078720  1.0
  O  O419  1  0.47721583  0.50256718  0.65782866  1.0
  O  O420  1  0.51396644  0.46441207  0.51549684  1.0
  O  O421  1  0.33754855  0.54057080  0.61884946  1.0
  O  O422  1  0.43904417  0.36423205  0.69681963  1.0
  O  O423  1  0.43755172  0.54046188  0.51560694  1.0
  O  O424  1  0.51481551  0.36414919  0.61859450  1.0
  O  O425  1  0.33819123  0.46460318  0.69696470  1.0
  O  O426  1  0.44030732  0.46468283  0.80009318  1.0
  O  O427  1  0.61703944  0.54060235  0.69687472  1.0
  O  O428  1  0.51703627  0.54071123  0.80011724  1.0
  O  O429  1  0.61608253  0.46449176  0.61862532  1.0
  O  O430  1  0.43881558  0.64091334  0.61888033  1.0
  O  O431  1  0.51618721  0.64097336  0.69701961  1.0
  F  F432  1  0.36922784  0.83502978  0.83260478  1.0
  F  F433  1  0.08445994  0.83256499  0.82880777  1.0
  F  F434  1  0.96413738  0.67519871  0.98725012  1.0
  F  F435  1  0.28715425  0.76722482  0.79571664  1.0
  F  F436  1  0.36934387  0.67382355  0.98617739  1.0
  F  F437  1  0.49313378  0.67539352  0.98751283  1.0
  F  F438  1  0.76165450  0.51460557  0.01446117  1.0
  F  F439  1  0.68954663  0.52028222  0.80075743  1.0
  F  F440  1  0.69968824  0.39842223  0.79433924  1.0
  F  F441  1  0.76384002  0.98991104  0.01431443  1.0
  F  F442  1  0.70964735  0.10272130  0.79149330  1.0
  F  F443  1  0.74545317  0.64464519  0.67326081  1.0
  F  F444  1  0.70421632  0.85991906  0.66024159  1.0
  F  F445  1  0.68994871  0.85035122  0.53575746  1.0
  F  F446  1  0.81512472  0.82188541  0.15394493  1.0
  F  F447  1  0.64722786  0.67050713  0.26783972  1.0
  F  F448  1  0.61922784  0.08502978  0.08260478  1.0
  F  F449  1  0.33445994  0.08256499  0.07880777  1.0
  F  F450  1  0.21413738  0.92519871  0.23725012  1.0
  F  F451  1  0.53715425  0.01722482  0.04571664  1.0
  F  F452  1  0.61934387  0.92382355  0.23617739  1.0
  F  F453  1  0.74313378  0.92539352  0.23751283  1.0
  F  F454  1  0.01165450  0.76460557  0.26446117  1.0
  F  F455  1  0.93954663  0.77028222  0.05075743  1.0
  F  F456  1  0.94968824  0.64842223  0.04433924  1.0
  F  F457  1  0.01384002  0.23991104  0.26431443  1.0
  F  F458  1  0.95964735  0.35272130  0.04149330  1.0
  F  F459  1  0.99545317  0.89464519  0.92326081  1.0
  F  F460  1  0.95421632  0.10991906  0.91024159  1.0
  F  F461  1  0.93994871  0.10035122  0.78575746  1.0
  F  F462  1  0.06512472  0.07188541  0.40394493  1.0
  F  F463  1  0.89722786  0.92050713  0.51783972  1.0
  F  F464  1  0.86922784  0.33502978  0.33260478  1.0
  F  F465  1  0.58445994  0.33256499  0.32880777  1.0
  F  F466  1  0.46413738  0.17519871  0.48725012  1.0
  F  F467  1  0.78715425  0.26722482  0.29571664  1.0
  F  F468  1  0.86934387  0.17382355  0.48617739  1.0
  F  F469  1  0.99313378  0.17539352  0.48751283  1.0
  F  F470  1  0.26165450  0.01460557  0.51446117  1.0
  F  F471  1  0.18954663  0.02028222  0.30075743  1.0
  F  F472  1  0.19968824  0.89842223  0.29433924  1.0
  F  F473  1  0.26384002  0.48991104  0.51431443  1.0
  F  F474  1  0.20964735  0.60272130  0.29149330  1.0
  F  F475  1  0.24545317  0.14464519  0.17326081  1.0
  F  F476  1  0.20421632  0.35991906  0.16024159  1.0
  F  F477  1  0.18994871  0.35035122  0.03575746  1.0
  F  F478  1  0.31512472  0.32188541  0.65394493  1.0
  F  F479  1  0.14722786  0.17050713  0.76783972  1.0
  F  F480  1  0.11922784  0.58502978  0.58260478  1.0
  F  F481  1  0.83445994  0.58256499  0.57880777  1.0
  F  F482  1  0.71413738  0.42519871  0.73725012  1.0
  F  F483  1  0.03715425  0.51722482  0.54571664  1.0
  F  F484  1  0.11934387  0.42382355  0.73617739  1.0
  F  F485  1  0.24313378  0.42539352  0.73751283  1.0
  F  F486  1  0.51165450  0.26460557  0.76446117  1.0
  F  F487  1  0.43954663  0.27028222  0.55075743  1.0
  F  F488  1  0.44968824  0.14842223  0.54433924  1.0
  F  F489  1  0.51384002  0.73991104  0.76431443  1.0
  F  F490  1  0.45964735  0.85272130  0.54149330  1.0
  F  F491  1  0.49545317  0.39464519  0.42326081  1.0
  F  F492  1  0.45421632  0.60991906  0.41024159  1.0
  F  F493  1  0.43994871  0.60035122  0.28575746  1.0
  F  F494  1  0.56512472  0.57188541  0.90394493  1.0
  F  F495  1  0.39722786  0.42050713  0.01783972  1.0
