# generated using pymatgen
data_Zn2H17C39N7O13F10
_symmetry_space_group_name_H-M   'P 1'
_cell_length_a   18.25135500
_cell_length_b   19.21259032
_cell_length_c   13.92185581
_cell_angle_alpha   86.54667267
_cell_angle_beta   88.81467902
_cell_angle_gamma   90.93160007
_symmetry_Int_Tables_number   1
_chemical_formula_structural   Zn2H17C39N7O13F10
_chemical_formula_sum   'Zn6 H51 C117 N21 O39 F30'
_cell_volume   4871.12298661
_cell_formula_units_Z   3
loop_
 _symmetry_equiv_pos_site_id
 _symmetry_equiv_pos_as_xyz
  1  'x, y, z'
loop_
 _atom_site_type_symbol
 _atom_site_label
 _atom_site_symmetry_multiplicity
 _atom_site_fract_x
 _atom_site_fract_y
 _atom_site_fract_z
 _atom_site_occupancy
  Zn  Zn0  1  0.83463240  0.74726135  0.94673949  1.0
  Zn  Zn1  1  0.99516346  0.74696740  0.94793187  1.0
  Zn  Zn2  1  0.16763240  0.08026135  0.27973949  1.0
  Zn  Zn3  1  0.32816346  0.07996740  0.28093187  1.0
  Zn  Zn4  1  0.50063240  0.41326135  0.61273949  1.0
  Zn  Zn5  1  0.66116346  0.41296740  0.61393187  1.0
  H  H6  1  0.71891595  0.76806783  0.79853815  1.0
  H  H7  1  0.47849439  0.72278681  0.09507581  1.0
  H  H8  1  0.36311758  0.76578973  0.90984604  1.0
  H  H9  1  0.23358688  0.68121245  0.09743348  1.0
  H  H10  1  0.09990518  0.68791358  0.07784209  1.0
  H  H11  1  0.96493628  0.41404891  0.80350872  1.0
  H  H12  1  0.83693299  0.30193588  0.95719975  1.0
  H  H13  1  0.02605548  0.94633090  0.01134686  1.0
  H  H14  1  0.81749561  0.97611987  0.87379093  1.0
  H  H15  1  0.72394236  0.92019994  0.33574999  1.0
  H  H16  1  0.74234353  0.91230861  0.45981133  1.0
  H  H17  1  0.84813519  0.97065134  0.29871904  1.0
  H  H18  1  0.80334315  0.02076383  0.38527957  1.0
  H  H19  1  0.87186939  0.96004684  0.42023523  1.0
  H  H20  1  0.02444439  0.66129570  0.50869690  1.0
  H  H21  1  0.97321994  0.64082924  0.40777580  1.0
  H  H22  1  0.03525898  0.71407708  0.40129505  1.0
  H  H23  1  0.05191595  0.10106783  0.13153815  1.0
  H  H24  1  0.81149439  0.05578681  0.42807581  1.0
  H  H25  1  0.69611758  0.09878973  0.24284604  1.0
  H  H26  1  0.56658688  0.01421245  0.43043348  1.0
  H  H27  1  0.43290518  0.02091358  0.41084209  1.0
  H  H28  1  0.29793628  0.74704891  0.13650872  1.0
  H  H29  1  0.16993299  0.63493588  0.29019975  1.0
  H  H30  1  0.35905548  0.27933090  0.34434686  1.0
  H  H31  1  0.15049561  0.30911987  0.20679093  1.0
  H  H32  1  0.05694236  0.25319994  0.66874999  1.0
  H  H33  1  0.07534353  0.24530861  0.79281133  1.0
  H  H34  1  0.18113519  0.30365134  0.63171904  1.0
  H  H35  1  0.13634315  0.35376383  0.71827957  1.0
  H  H36  1  0.20486939  0.29304684  0.75323523  1.0
  H  H37  1  0.35744439  0.99429570  0.84169690  1.0
  H  H38  1  0.30621994  0.97382924  0.74077580  1.0
  H  H39  1  0.36825898  0.04707708  0.73429505  1.0
  H  H40  1  0.38491595  0.43406783  0.46453815  1.0
  H  H41  1  0.14449439  0.38878681  0.76107581  1.0
  H  H42  1  0.02911758  0.43178973  0.57584604  1.0
  H  H43  1  0.89958688  0.34721245  0.76343348  1.0
  H  H44  1  0.76590518  0.35391358  0.74384209  1.0
  H  H45  1  0.63093628  0.08004891  0.46950872  1.0
  H  H46  1  0.50293299  0.96793588  0.62319975  1.0
  H  H47  1  0.69205548  0.61233090  0.67734686  1.0
  H  H48  1  0.48349561  0.64211987  0.53979093  1.0
  H  H49  1  0.38994236  0.58619994  0.00174999  1.0
  H  H50  1  0.40834353  0.57830861  0.12581133  1.0
  H  H51  1  0.51413519  0.63665134  0.96471904  1.0
  H  H52  1  0.46934315  0.68676383  0.05127957  1.0
  H  H53  1  0.53786939  0.62604684  0.08623523  1.0
  H  H54  1  0.69044439  0.32729570  0.17469690  1.0
  H  H55  1  0.63921994  0.30682924  0.07377580  1.0
  H  H56  1  0.70125898  0.38007708  0.06729505  1.0
  C  C57  1  0.61086312  0.75906744  0.86278841  1.0
  C  C58  1  0.68666873  0.75876356  0.86479361  1.0
  C  C59  1  0.68537736  0.73585929  0.02850753  1.0
  C  C60  1  0.60937181  0.73517930  0.03324507  1.0
  C  C61  1  0.57079346  0.74727167  0.94891541  1.0
  C  C62  1  0.48961075  0.74867804  0.94766905  1.0
  C  C63  1  0.37646091  0.72944656  0.04859456  1.0
  C  C64  1  0.25794149  0.74346670  0.96449487  1.0
  C  C65  1  0.21239377  0.71014444  0.03508594  1.0
  C  C66  1  0.13711553  0.71326508  0.02412582  1.0
  C  C67  1  0.15014810  0.77786104  0.88052564  1.0
  C  C68  1  0.22586036  0.77692100  0.88472240  1.0
  C  C69  1  0.91105488  0.54263620  0.94747214  1.0
  C  C70  1  0.86653475  0.50182494  0.01194790  1.0
  C  C71  1  0.85584284  0.43058995  0.00134903  1.0
  C  C72  1  0.89213843  0.39721812  0.92844550  1.0
  C  C73  1  0.93699507  0.43715179  0.86333375  1.0
  C  C74  1  0.94507705  0.50922074  0.87225824  1.0
  C  C75  1  0.93884746  0.27893338  0.91288166  1.0
  C  C76  1  0.94693429  0.09761913  0.92692535  1.0
  C  C77  1  0.99742191  0.05158019  0.96898363  1.0
  C  C78  1  0.98424821  0.97979512  0.97953289  1.0
  C  C79  1  0.91874801  0.95159288  0.94719968  1.0
  C  C80  1  0.86752684  0.99589520  0.90411039  1.0
  C  C81  1  0.88193279  0.06784195  0.89429476  1.0
  C  C82  1  0.92047755  0.74356218  0.66547798  1.0
  C  C83  1  0.92736735  0.73700594  0.58052701  1.0
  C  C84  1  0.93401659  0.73028332  0.47894822  1.0
  C  C85  1  0.88983438  0.76454188  0.41547697  1.0
  C  C86  1  0.89979647  0.75623739  0.31419419  1.0
  C  C87  1  0.90932531  0.75066689  0.22919390  1.0
  C  C88  1  0.83360847  0.81522749  0.44875042  1.0
  C  C89  1  0.76766577  0.91235445  0.38773793  1.0
  C  C90  1  0.82572281  0.96968945  0.37240858  1.0
  C  C91  1  0.99490021  0.68407198  0.44695675  1.0
  C  C92  1  0.91137951  0.74654995  0.12264133  1.0
  C  C93  1  0.91841812  0.74767967  0.77203013  1.0
  C  C94  1  0.91736573  0.87424316  0.94342636  1.0
  C  C95  1  0.91243183  0.61998563  0.95124515  1.0
  C  C96  1  0.94386312  0.09206744  0.19578841  1.0
  C  C97  1  0.01966873  0.09176356  0.19779361  1.0
  C  C98  1  0.01837736  0.06885929  0.36150753  1.0
  C  C99  1  0.94237181  0.06817930  0.36624507  1.0
  C  C100  1  0.90379346  0.08027167  0.28191541  1.0
  C  C101  1  0.82261075  0.08167804  0.28066905  1.0
  C  C102  1  0.70946091  0.06244656  0.38159456  1.0
  C  C103  1  0.59094149  0.07646670  0.29749487  1.0
  C  C104  1  0.54539377  0.04314444  0.36808594  1.0
  C  C105  1  0.47011553  0.04626508  0.35712582  1.0
  C  C106  1  0.48314810  0.11086104  0.21352564  1.0
  C  C107  1  0.55886036  0.10992100  0.21772240  1.0
  C  C108  1  0.24405488  0.87563620  0.28047214  1.0
  C  C109  1  0.19953475  0.83482494  0.34494790  1.0
  C  C110  1  0.18884284  0.76358995  0.33434903  1.0
  C  C111  1  0.22513843  0.73021812  0.26144550  1.0
  C  C112  1  0.26999507  0.77015179  0.19633375  1.0
  C  C113  1  0.27807705  0.84222074  0.20525824  1.0
  C  C114  1  0.27184746  0.61193338  0.24588166  1.0
  C  C115  1  0.27993429  0.43061913  0.25992535  1.0
  C  C116  1  0.33042191  0.38458019  0.30198363  1.0
  C  C117  1  0.31724821  0.31279512  0.31253289  1.0
  C  C118  1  0.25174801  0.28459288  0.28019968  1.0
  C  C119  1  0.20052684  0.32889520  0.23711039  1.0
  C  C120  1  0.21493279  0.40084195  0.22729476  1.0
  C  C121  1  0.25347755  0.07656218  0.99847798  1.0
  C  C122  1  0.26036735  0.07000594  0.91352701  1.0
  C  C123  1  0.26701659  0.06328332  0.81194822  1.0
  C  C124  1  0.22283438  0.09754188  0.74847697  1.0
  C  C125  1  0.23279647  0.08923739  0.64719419  1.0
  C  C126  1  0.24232531  0.08366689  0.56219390  1.0
  C  C127  1  0.16660847  0.14822749  0.78175042  1.0
  C  C128  1  0.10066577  0.24535445  0.72073793  1.0
  C  C129  1  0.15872281  0.30268945  0.70540858  1.0
  C  C130  1  0.32790021  0.01707198  0.77995675  1.0
  C  C131  1  0.24437951  0.07954995  0.45564133  1.0
  C  C132  1  0.25141812  0.08067967  0.10503013  1.0
  C  C133  1  0.25036573  0.20724316  0.27642636  1.0
  C  C134  1  0.24543183  0.95298563  0.28424515  1.0
  C  C135  1  0.27686312  0.42506744  0.52878841  1.0
  C  C136  1  0.35266873  0.42476356  0.53079361  1.0
  C  C137  1  0.35137736  0.40185929  0.69450753  1.0
  C  C138  1  0.27537181  0.40117930  0.69924507  1.0
  C  C139  1  0.23679346  0.41327167  0.61491541  1.0
  C  C140  1  0.15561075  0.41467804  0.61366905  1.0
  C  C141  1  0.04246091  0.39544656  0.71459456  1.0
  C  C142  1  0.92394149  0.40946670  0.63049487  1.0
  C  C143  1  0.87839377  0.37614444  0.70108594  1.0
  C  C144  1  0.80311553  0.37926508  0.69012582  1.0
  C  C145  1  0.81614810  0.44386104  0.54652564  1.0
  C  C146  1  0.89186036  0.44292100  0.55072240  1.0
  C  C147  1  0.57705488  0.20863620  0.61347214  1.0
  C  C148  1  0.53253475  0.16782494  0.67794790  1.0
  C  C149  1  0.52184284  0.09658995  0.66734903  1.0
  C  C150  1  0.55813843  0.06321812  0.59444550  1.0
  C  C151  1  0.60299507  0.10315179  0.52933375  1.0
  C  C152  1  0.61107705  0.17522074  0.53825824  1.0
  C  C153  1  0.60484746  0.94493338  0.57888166  1.0
  C  C154  1  0.61293429  0.76361913  0.59292535  1.0
  C  C155  1  0.66342191  0.71758019  0.63498363  1.0
  C  C156  1  0.65024821  0.64579512  0.64553289  1.0
  C  C157  1  0.58474801  0.61759288  0.61319968  1.0
  C  C158  1  0.53352684  0.66189520  0.57011039  1.0
  C  C159  1  0.54793279  0.73384195  0.56029476  1.0
  C  C160  1  0.58647755  0.40956218  0.33147798  1.0
  C  C161  1  0.59336735  0.40300594  0.24652701  1.0
  C  C162  1  0.60001659  0.39628332  0.14494822  1.0
  C  C163  1  0.55583438  0.43054188  0.08147697  1.0
  C  C164  1  0.56579647  0.42223739  0.98019419  1.0
  C  C165  1  0.57532531  0.41666689  0.89519390  1.0
  C  C166  1  0.49960847  0.48122749  0.11475042  1.0
  C  C167  1  0.43366577  0.57835445  0.05373793  1.0
  C  C168  1  0.49172281  0.63568945  0.03840858  1.0
  C  C169  1  0.66090021  0.35007198  0.11295675  1.0
  C  C170  1  0.57737951  0.41254995  0.78864133  1.0
  C  C171  1  0.58441812  0.41367967  0.43803013  1.0
  C  C172  1  0.58336573  0.54024316  0.60942636  1.0
  C  C173  1  0.57843183  0.28598563  0.61724515  1.0
  N  N174  1  0.72507470  0.74746238  0.94591798  1.0
  N  N175  1  0.45134076  0.73404427  0.03350868  1.0
  N  N176  1  0.33502550  0.74509120  0.96949400  1.0
  N  N177  1  0.10472142  0.74677196  0.94874551  1.0
  N  N178  1  0.88166351  0.32457975  0.92334809  1.0
  N  N179  1  0.91506799  0.20986963  0.92392411  1.0
  N  N180  1  0.96693175  0.16891992  0.91405245  1.0
  N  N181  1  0.05807470  0.08046238  0.27891798  1.0
  N  N182  1  0.78434076  0.06704427  0.36650868  1.0
  N  N183  1  0.66802550  0.07809120  0.30249400  1.0
  N  N184  1  0.43772142  0.07977196  0.28174551  1.0
  N  N185  1  0.21466351  0.65757975  0.25634809  1.0
  N  N186  1  0.24806799  0.54286963  0.25692411  1.0
  N  N187  1  0.29993175  0.50191992  0.24705245  1.0
  N  N188  1  0.39107470  0.41346238  0.61191798  1.0
  N  N189  1  0.11734076  0.40004427  0.69950868  1.0
  N  N190  1  0.00102550  0.41109120  0.63549400  1.0
  N  N191  1  0.77072142  0.41277196  0.61474551  1.0
  N  N192  1  0.54766351  0.99057975  0.58934809  1.0
  N  N193  1  0.58106799  0.87586963  0.58992411  1.0
  N  N194  1  0.63293175  0.83491992  0.58005245  1.0
  O  O195  1  0.45847444  0.76373521  0.87203780  1.0
  O  O196  1  0.35300246  0.71262087  0.13015548  1.0
  O  O197  1  0.00288575  0.29915163  0.90144994  1.0
  O  O198  1  0.82208371  0.82973055  0.53209345  1.0
  O  O199  1  0.80172277  0.84728287  0.37089595  1.0
  O  O200  1  0.97864759  0.74894695  0.80824251  1.0
  O  O201  1  0.97298939  0.74505904  0.08733366  1.0
  O  O202  1  0.97782249  0.84817294  0.94261630  1.0
  O  O203  1  0.97381443  0.64583306  0.95295980  1.0
  O  O204  1  0.85598137  0.84839569  0.94171156  1.0
  O  O205  1  0.85114828  0.74528263  0.08642886  1.0
  O  O206  1  0.85680651  0.74917050  0.80733656  1.0
  O  O207  1  0.85197335  0.64605660  0.95205392  1.0
  O  O208  1  0.79147444  0.09673521  0.20503780  1.0
  O  O209  1  0.68600246  0.04562087  0.46315548  1.0
  O  O210  1  0.33588575  0.63215163  0.23444994  1.0
  O  O211  1  0.15508371  0.16273055  0.86509345  1.0
  O  O212  1  0.13472277  0.18028287  0.70389595  1.0
  O  O213  1  0.31164759  0.08194695  0.14124251  1.0
  O  O214  1  0.30598939  0.07805904  0.42033366  1.0
  O  O215  1  0.31082249  0.18117294  0.27561630  1.0
  O  O216  1  0.30681443  0.97883306  0.28595980  1.0
  O  O217  1  0.18898137  0.18139569  0.27471156  1.0
  O  O218  1  0.18414828  0.07828263  0.41942886  1.0
  O  O219  1  0.18980651  0.08217050  0.14033656  1.0
  O  O220  1  0.18497335  0.97905660  0.28505392  1.0
  O  O221  1  0.12447444  0.42973521  0.53803780  1.0
  O  O222  1  0.01900246  0.37862087  0.79615548  1.0
  O  O223  1  0.66888575  0.96515163  0.56744994  1.0
  O  O224  1  0.48808371  0.49573055  0.19809345  1.0
  O  O225  1  0.46772277  0.51328287  0.03689595  1.0
  O  O226  1  0.64464759  0.41494695  0.47424251  1.0
  O  O227  1  0.63898939  0.41105904  0.75333366  1.0
  O  O228  1  0.64382249  0.51417294  0.60861630  1.0
  O  O229  1  0.63981443  0.31183306  0.61895980  1.0
  O  O230  1  0.52198137  0.51439569  0.60771156  1.0
  O  O231  1  0.51714828  0.41128263  0.75242886  1.0
  O  O232  1  0.52280651  0.41517050  0.47333656  1.0
  O  O233  1  0.51797335  0.31205660  0.61805392  1.0
  F  F234  1  0.57866531  0.77038696  0.77787879  1.0
  F  F235  1  0.72235586  0.72443984  0.10994691  1.0
  F  F236  1  0.26769543  0.80915698  0.81453855  1.0
  F  F237  1  0.11900486  0.81199268  0.80543354  1.0
  F  F238  1  0.57449889  0.72303270  0.11857116  1.0
  F  F239  1  0.98656733  0.54513932  0.80530790  1.0
  F  F240  1  0.83161970  0.10806869  0.85081684  1.0
  F  F241  1  0.06135553  0.07623438  0.00001649  1.0
  F  F242  1  0.81298207  0.39288140  0.06521100  1.0
  F  F243  1  0.83344793  0.53038656  0.08677965  1.0
  F  F244  1  0.91166531  0.10338696  0.11087879  1.0
  F  F245  1  0.05535586  0.05743984  0.44294691  1.0
  F  F246  1  0.60069543  0.14215698  0.14753855  1.0
  F  F247  1  0.45200486  0.14499268  0.13843354  1.0
  F  F248  1  0.90749889  0.05603270  0.45157116  1.0
  F  F249  1  0.31956733  0.87813932  0.13830790  1.0
  F  F250  1  0.16461970  0.44106869  0.18381684  1.0
  F  F251  1  0.39435553  0.40923438  0.33301649  1.0
  F  F252  1  0.14598207  0.72588140  0.39821100  1.0
  F  F253  1  0.16644793  0.86338656  0.41977965  1.0
  F  F254  1  0.24466531  0.43638696  0.44387879  1.0
  F  F255  1  0.38835586  0.39043984  0.77594691  1.0
  F  F256  1  0.93369543  0.47515698  0.48053855  1.0
  F  F257  1  0.78500486  0.47799268  0.47143354  1.0
  F  F258  1  0.24049889  0.38903270  0.78457116  1.0
  F  F259  1  0.65256733  0.21113932  0.47130790  1.0
  F  F260  1  0.49761970  0.77406869  0.51681684  1.0
  F  F261  1  0.72735553  0.74223438  0.66601649  1.0
  F  F262  1  0.47898207  0.05888140  0.73121100  1.0
  F  F263  1  0.49944793  0.19638656  0.75277965  1.0
