# generated using pymatgen
data_Zn4H14C56N5Cl3O13F16
_symmetry_space_group_name_H-M   'P 1'
_cell_length_a   21.58200406
_cell_length_b   21.33394113
_cell_length_c   21.31125855
_cell_angle_alpha   90.05062075
_cell_angle_beta   89.84407929
_cell_angle_gamma   89.87332784
_symmetry_Int_Tables_number   1
_chemical_formula_structural   Zn4H14C56N5Cl3O13F16
_chemical_formula_sum   'Zn4 H14 C56 N5 Cl3 O13 F16'
_cell_volume   9812.26161655
_cell_formula_units_Z   1
loop_
 _symmetry_equiv_pos_site_id
 _symmetry_equiv_pos_as_xyz
  1  'x, y, z'
loop_
 _atom_site_type_symbol
 _atom_site_label
 _atom_site_symmetry_multiplicity
 _atom_site_fract_x
 _atom_site_fract_y
 _atom_site_fract_z
 _atom_site_occupancy
  Zn  Zn0  1  0.78104576  0.69713493  0.85695594  1.0
  Zn  Zn1  1  0.67735693  0.80257990  0.85734425  1.0
  Zn  Zn2  1  0.67725002  0.69756858  0.96245821  1.0
  Zn  Zn3  1  0.78125384  0.80222904  0.96217141  1.0
  H  H4  1  0.49864268  0.75163863  0.80881236  1.0
  H  H5  1  0.97069511  0.65321004  0.87627790  1.0
  H  H6  1  0.96747951  0.84356503  0.94466815  1.0
  H  H7  1  0.28629166  0.81310498  0.97842947  1.0
  H  H8  1  0.19385253  0.70832392  0.74634165  1.0
  H  H9  1  0.12242604  0.72919225  0.77737530  1.0
  H  H10  1  0.15431842  0.65319690  0.79363686  1.0
  H  H11  1  0.71571414  0.39077229  0.81200751  1.0
  H  H12  1  0.69051775  0.29666903  0.00581251  1.0
  H  H13  1  0.80895087  0.98995674  0.84753602  1.0
  H  H14  1  0.65250921  0.10789286  0.97131375  1.0
  H  H15  1  0.76957453  0.20230719  0.81577714  1.0
  H  H16  1  0.76576529  0.64638863  0.25824648  1.0
  H  H17  1  0.76120771  0.65375463  0.14466264  1.0
  C  C18  1  0.49880680  0.75052580  0.91032397  1.0
  C  C19  1  0.47081776  0.75293541  0.85148673  1.0
  C  C20  1  0.40632887  0.75812429  0.84684849  1.0
  C  C21  1  0.36684761  0.75580575  0.89950735  1.0
  C  C22  1  0.39721248  0.75355987  0.95795547  1.0
  C  C23  1  0.46163430  0.75228459  0.96335800  1.0
  C  C24  1  0.29760507  0.75611270  0.89512692  1.0
  C  C25  1  0.26258828  0.72372620  0.84956933  1.0
  C  C26  1  0.19644950  0.72864732  0.84617264  1.0
  C  C27  1  0.16206543  0.75565087  0.89688893  1.0
  C  C28  1  0.09246461  0.75369009  0.90040796  1.0
  C  C29  1  0.05830442  0.69914546  0.88706751  1.0
  C  C30  1  0.99351453  0.69684454  0.88863209  1.0
  C  C31  1  0.96027703  0.74900616  0.90898063  1.0
  C  C32  1  0.99213219  0.80307849  0.92594241  1.0
  C  C33  1  0.05651244  0.80573052  0.91893348  1.0
  C  C34  1  0.19790035  0.78297560  0.94517563  1.0
  C  C35  1  0.26278894  0.78734152  0.94129929  1.0
  C  C36  1  0.16471482  0.70301919  0.78816389  1.0
  C  C37  1  0.72887560  0.51614374  0.90961925  1.0
  C  C38  1  0.72130152  0.48132693  0.85498104  1.0
  C  C39  1  0.72126270  0.41587604  0.85611676  1.0
  C  C40  1  0.72840416  0.38269760  0.91275951  1.0
  C  C41  1  0.73530682  0.41857880  0.96744856  1.0
  C  C42  1  0.73562277  0.48404219  0.96598942  1.0
  C  C43  1  0.72917821  0.31369446  0.91308719  1.0
  C  C44  1  0.70884150  0.27662991  0.96275710  1.0
  C  C45  1  0.73179934  0.18532430  0.90882965  1.0
  C  C46  1  0.73153867  0.11630629  0.90850807  1.0
  C  C47  1  0.77478729  0.08062844  0.87446458  1.0
  C  C48  1  0.77416575  0.01517727  0.87472969  1.0
  C  C49  1  0.72961651  0.98297483  0.90976346  1.0
  C  C50  1  0.68640808  0.01750216  0.94394465  1.0
  C  C51  1  0.68718214  0.08293324  0.94364198  1.0
  C  C52  1  0.75200821  0.22240601  0.85912799  1.0
  C  C53  1  0.72911406  0.74978628  0.67574832  1.0
  C  C54  1  0.67560612  0.75836792  0.64007794  1.0
  C  C55  1  0.67787008  0.75624757  0.57450151  1.0
  C  C56  1  0.73334443  0.74573017  0.54183772  1.0
  C  C57  1  0.78653273  0.73789635  0.57837203  1.0
  C  C58  1  0.78443777  0.73971832  0.64386626  1.0
  C  C59  1  0.73579086  0.74283601  0.47346945  1.0
  C  C60  1  0.74055672  0.74087876  0.34570473  1.0
  C  C61  1  0.73828804  0.74325726  0.27656410  1.0
  C  C62  1  0.75245486  0.69138973  0.23823267  1.0
  C  C63  1  0.74897654  0.69486197  0.17258512  1.0
  C  C64  1  0.72935406  0.74998590  0.14307808  1.0
  C  C65  1  0.71438880  0.80127891  0.18023533  1.0
  C  C66  1  0.71922203  0.79814310  0.24543844  1.0
  C  C67  1  0.78180027  0.70825988  0.38336412  1.0
  C  C68  1  0.72930597  0.74994248  0.07316209  1.0
  C  C69  1  0.72948537  0.91313360  0.90979472  1.0
  C  C70  1  0.72914727  0.74981364  0.74566476  1.0
  C  C71  1  0.89123773  0.74926615  0.90920572  1.0
  C  C72  1  0.72898027  0.58598494  0.90965307  1.0
  C  C73  1  0.56784605  0.75044183  0.91022105  1.0
  N  N74  1  0.70914363  0.21291589  0.96155213  1.0
  N  N75  1  0.75065548  0.28615122  0.85987561  1.0
  N  N76  1  0.69449375  0.77614602  0.44004830  1.0
  N  N77  1  0.69649086  0.77454420  0.37565199  1.0
  N  N78  1  0.78002559  0.70764960  0.44678035  1.0
  Cl  Cl79  1  0.29858681  0.66807011  0.80123065  1.0
  Cl  Cl80  1  0.16717052  0.80742418  0.01672525  1.0
  Cl  Cl81  1  0.84431829  0.66584614  0.35593240  1.0
  O  O82  1  0.72922703  0.74987828  0.90973257  1.0
  O  O83  1  0.76724887  0.71108781  0.76898326  1.0
  O  O84  1  0.59042302  0.78897799  0.87157078  1.0
  O  O85  1  0.69088685  0.60958106  0.94842078  1.0
  O  O86  1  0.69106898  0.78855764  0.76926898  1.0
  O  O87  1  0.76714522  0.60926222  0.87090842  1.0
  O  O88  1  0.59034384  0.71182633  0.94879763  1.0
  O  O89  1  0.69108850  0.71148626  0.05044406  1.0
  O  O90  1  0.86814616  0.78796039  0.94793175  1.0
  O  O91  1  0.76750020  0.78838070  0.05023356  1.0
  O  O92  1  0.86799354  0.71074779  0.87062968  1.0
  O  O93  1  0.69127134  0.89046353  0.87129210  1.0
  O  O94  1  0.76760386  0.89020553  0.94830843  1.0
  F  F95  1  0.48722811  0.75346020  0.02066751  1.0
  F  F96  1  0.36443816  0.75278394  0.01158194  1.0
  F  F97  1  0.08341771  0.86111784  0.93062578  1.0
  F  F98  1  0.08740259  0.64544682  0.87270732  1.0
  F  F99  1  0.38312582  0.76717020  0.78925471  1.0
  F  F100  1  0.71304439  0.51025972  0.79977582  1.0
  F  F101  1  0.74129270  0.51485675  0.02053740  1.0
  F  F102  1  0.74247419  0.39021191  0.02313495  1.0
  F  F103  1  0.64275447  0.98840367  0.97803289  1.0
  F  F104  1  0.81918382  0.10893094  0.84078023  1.0
  F  F105  1  0.62056869  0.76864466  0.66727886  1.0
  F  F106  1  0.62455565  0.76332920  0.54312806  1.0
  F  F107  1  0.84213099  0.72925419  0.55129628  1.0
  F  F108  1  0.83749799  0.73173734  0.67566357  1.0
  F  F109  1  0.70542014  0.85012095  0.27819380  1.0
  F  F110  1  0.69492728  0.85491973  0.15381065  1.0
  Zn  Zn0  1  0.03104576  0.94713493  0.10695594  1.0
  Zn  Zn1  1  0.92735693  0.05257990  0.10734425  1.0
  Zn  Zn2  1  0.92725002  0.94756858  0.21245821  1.0
  Zn  Zn3  1  0.03125384  0.05222904  0.21217141  1.0
  H  H4  1  0.74864268  0.00163863  0.05881236  1.0
  H  H5  1  0.22069511  0.90321004  0.12627790  1.0
  H  H6  1  0.21747951  0.09356503  0.19466815  1.0
  H  H7  1  0.53629166  0.06310498  0.22842947  1.0
  H  H8  1  0.44385253  0.95832392  0.99634165  1.0
  H  H9  1  0.37242604  0.97919225  0.02737530  1.0
  H  H10  1  0.40431842  0.90319690  0.04363686  1.0
  H  H11  1  0.96571414  0.64077229  0.06200751  1.0
  H  H12  1  0.94051775  0.54666903  0.25581251  1.0
  H  H13  1  0.05895087  0.23995674  0.09753602  1.0
  H  H14  1  0.90250921  0.35789286  0.22131375  1.0
  H  H15  1  0.01957453  0.45230719  0.06577714  1.0
  H  H16  1  0.01576529  0.89638863  0.50824648  1.0
  H  H17  1  0.01120771  0.90375463  0.39466264  1.0
  C  C18  1  0.74880680  0.00052580  0.16032397  1.0
  C  C19  1  0.72081776  0.00293541  0.10148673  1.0
  C  C20  1  0.65632887  0.00812429  0.09684849  1.0
  C  C21  1  0.61684761  0.00580575  0.14950735  1.0
  C  C22  1  0.64721248  0.00355987  0.20795547  1.0
  C  C23  1  0.71163430  0.00228459  0.21335800  1.0
  C  C24  1  0.54760507  0.00611270  0.14512692  1.0
  C  C25  1  0.51258828  0.97372620  0.09956933  1.0
  C  C26  1  0.44644950  0.97864732  0.09617264  1.0
  C  C27  1  0.41206543  0.00565087  0.14688893  1.0
  C  C28  1  0.34246461  0.00369009  0.15040796  1.0
  C  C29  1  0.30830442  0.94914546  0.13706751  1.0
  C  C30  1  0.24351453  0.94684454  0.13863209  1.0
  C  C31  1  0.21027703  0.99900616  0.15898063  1.0
  C  C32  1  0.24213219  0.05307849  0.17594241  1.0
  C  C33  1  0.30651244  0.05573052  0.16893348  1.0
  C  C34  1  0.44790035  0.03297560  0.19517563  1.0
  C  C35  1  0.51278894  0.03734152  0.19129929  1.0
  C  C36  1  0.41471482  0.95301919  0.03816389  1.0
  C  C37  1  0.97887560  0.76614374  0.15961925  1.0
  C  C38  1  0.97130152  0.73132693  0.10498104  1.0
  C  C39  1  0.97126270  0.66587604  0.10611676  1.0
  C  C40  1  0.97840416  0.63269760  0.16275951  1.0
  C  C41  1  0.98530682  0.66857880  0.21744856  1.0
  C  C42  1  0.98562277  0.73404219  0.21598942  1.0
  C  C43  1  0.97917821  0.56369446  0.16308719  1.0
  C  C44  1  0.95884150  0.52662991  0.21275710  1.0
  C  C45  1  0.98179934  0.43532430  0.15882965  1.0
  C  C46  1  0.98153867  0.36630629  0.15850807  1.0
  C  C47  1  0.02478729  0.33062844  0.12446458  1.0
  C  C48  1  0.02416575  0.26517727  0.12472969  1.0
  C  C49  1  0.97961651  0.23297483  0.15976346  1.0
  C  C50  1  0.93640808  0.26750216  0.19394465  1.0
  C  C51  1  0.93718214  0.33293324  0.19364198  1.0
  C  C52  1  0.00200821  0.47240601  0.10912799  1.0
  C  C53  1  0.97911406  0.99978628  0.92574832  1.0
  C  C54  1  0.92560612  0.00836792  0.89007794  1.0
  C  C55  1  0.92787008  0.00624757  0.82450151  1.0
  C  C56  1  0.98334443  0.99573017  0.79183772  1.0
  C  C57  1  0.03653273  0.98789635  0.82837203  1.0
  C  C58  1  0.03443777  0.98971832  0.89386626  1.0
  C  C59  1  0.98579086  0.99283601  0.72346945  1.0
  C  C60  1  0.99055672  0.99087876  0.59570473  1.0
  C  C61  1  0.98828804  0.99325726  0.52656410  1.0
  C  C62  1  0.00245486  0.94138973  0.48823267  1.0
  C  C63  1  0.99897654  0.94486197  0.42258512  1.0
  C  C64  1  0.97935406  0.99998590  0.39307808  1.0
  C  C65  1  0.96438880  0.05127891  0.43023533  1.0
  C  C66  1  0.96922203  0.04814310  0.49543844  1.0
  C  C67  1  0.03180027  0.95825988  0.63336412  1.0
  C  C68  1  0.97930597  0.99994248  0.32316209  1.0
  C  C69  1  0.97948537  0.16313360  0.15979472  1.0
  C  C70  1  0.97914727  0.99981364  0.99566476  1.0
  C  C71  1  0.14123773  0.99926615  0.15920572  1.0
  C  C72  1  0.97898027  0.83598494  0.15965307  1.0
  C  C73  1  0.81784605  0.00044183  0.16022105  1.0
  N  N74  1  0.95914363  0.46291589  0.21155213  1.0
  N  N75  1  0.00065548  0.53615122  0.10987561  1.0
  N  N76  1  0.94449375  0.02614602  0.69004830  1.0
  N  N77  1  0.94649086  0.02454420  0.62565199  1.0
  N  N78  1  0.03002559  0.95764960  0.69678035  1.0
  Cl  Cl79  1  0.54858681  0.91807011  0.05123065  1.0
  Cl  Cl80  1  0.41717052  0.05742418  0.26672525  1.0
  Cl  Cl81  1  0.09431829  0.91584614  0.60593240  1.0
  O  O82  1  0.97922703  0.99987828  0.15973257  1.0
  O  O83  1  0.01724887  0.96108781  0.01898326  1.0
  O  O84  1  0.84042302  0.03897799  0.12157078  1.0
  O  O85  1  0.94088685  0.85958106  0.19842078  1.0
  O  O86  1  0.94106898  0.03855764  0.01926898  1.0
  O  O87  1  0.01714522  0.85926222  0.12090842  1.0
  O  O88  1  0.84034384  0.96182633  0.19879763  1.0
  O  O89  1  0.94108850  0.96148626  0.30044406  1.0
  O  O90  1  0.11814616  0.03796039  0.19793175  1.0
  O  O91  1  0.01750020  0.03838070  0.30023356  1.0
  O  O92  1  0.11799354  0.96074779  0.12062968  1.0
  O  O93  1  0.94127134  0.14046353  0.12129210  1.0
  O  O94  1  0.01760386  0.14020553  0.19830843  1.0
  F  F95  1  0.73722811  0.00346020  0.27066751  1.0
  F  F96  1  0.61443816  0.00278394  0.26158194  1.0
  F  F97  1  0.33341771  0.11111784  0.18062578  1.0
  F  F98  1  0.33740259  0.89544682  0.12270732  1.0
  F  F99  1  0.63312582  0.01717020  0.03925471  1.0
  F  F100  1  0.96304439  0.76025972  0.04977582  1.0
  F  F101  1  0.99129270  0.76485675  0.27053740  1.0
  F  F102  1  0.99247419  0.64021191  0.27313495  1.0
  F  F103  1  0.89275447  0.23840367  0.22803289  1.0
  F  F104  1  0.06918382  0.35893094  0.09078023  1.0
  F  F105  1  0.87056869  0.01864466  0.91727886  1.0
  F  F106  1  0.87455565  0.01332920  0.79312806  1.0
  F  F107  1  0.09213099  0.97925419  0.80129628  1.0
  F  F108  1  0.08749799  0.98173734  0.92566357  1.0
  F  F109  1  0.95542014  0.10012095  0.52819380  1.0
  F  F110  1  0.94492728  0.10491973  0.40381065  1.0
  Zn  Zn0  1  0.28104576  0.19713493  0.35695594  1.0
  Zn  Zn1  1  0.17735693  0.30257990  0.35734425  1.0
  Zn  Zn2  1  0.17725002  0.19756858  0.46245821  1.0
  Zn  Zn3  1  0.28125384  0.30222904  0.46217141  1.0
  H  H4  1  0.99864268  0.25163863  0.30881236  1.0
  H  H5  1  0.47069511  0.15321004  0.37627790  1.0
  H  H6  1  0.46747951  0.34356503  0.44466815  1.0
  H  H7  1  0.78629166  0.31310498  0.47842947  1.0
  H  H8  1  0.69385253  0.20832392  0.24634165  1.0
  H  H9  1  0.62242604  0.22919225  0.27737530  1.0
  H  H10  1  0.65431842  0.15319690  0.29363686  1.0
  H  H11  1  0.21571414  0.89077229  0.31200751  1.0
  H  H12  1  0.19051775  0.79666903  0.50581251  1.0
  H  H13  1  0.30895087  0.48995674  0.34753602  1.0
  H  H14  1  0.15250921  0.60789286  0.47131375  1.0
  H  H15  1  0.26957453  0.70230719  0.31577714  1.0
  H  H16  1  0.26576529  0.14638863  0.75824648  1.0
  H  H17  1  0.26120771  0.15375463  0.64466264  1.0
  C  C18  1  0.99880680  0.25052580  0.41032397  1.0
  C  C19  1  0.97081776  0.25293541  0.35148673  1.0
  C  C20  1  0.90632887  0.25812429  0.34684849  1.0
  C  C21  1  0.86684761  0.25580575  0.39950735  1.0
  C  C22  1  0.89721248  0.25355987  0.45795547  1.0
  C  C23  1  0.96163430  0.25228459  0.46335800  1.0
  C  C24  1  0.79760507  0.25611270  0.39512692  1.0
  C  C25  1  0.76258828  0.22372620  0.34956933  1.0
  C  C26  1  0.69644950  0.22864732  0.34617264  1.0
  C  C27  1  0.66206543  0.25565087  0.39688893  1.0
  C  C28  1  0.59246461  0.25369009  0.40040796  1.0
  C  C29  1  0.55830442  0.19914546  0.38706751  1.0
  C  C30  1  0.49351453  0.19684454  0.38863209  1.0
  C  C31  1  0.46027703  0.24900616  0.40898063  1.0
  C  C32  1  0.49213219  0.30307849  0.42594241  1.0
  C  C33  1  0.55651244  0.30573052  0.41893348  1.0
  C  C34  1  0.69790035  0.28297560  0.44517563  1.0
  C  C35  1  0.76278894  0.28734152  0.44129929  1.0
  C  C36  1  0.66471482  0.20301919  0.28816389  1.0
  C  C37  1  0.22887560  0.01614374  0.40961925  1.0
  C  C38  1  0.22130152  0.98132693  0.35498104  1.0
  C  C39  1  0.22126270  0.91587604  0.35611676  1.0
  C  C40  1  0.22840416  0.88269760  0.41275951  1.0
  C  C41  1  0.23530682  0.91857880  0.46744856  1.0
  C  C42  1  0.23562277  0.98404219  0.46598942  1.0
  C  C43  1  0.22917821  0.81369446  0.41308719  1.0
  C  C44  1  0.20884150  0.77662991  0.46275710  1.0
  C  C45  1  0.23179934  0.68532430  0.40882965  1.0
  C  C46  1  0.23153867  0.61630629  0.40850807  1.0
  C  C47  1  0.27478729  0.58062844  0.37446458  1.0
  C  C48  1  0.27416575  0.51517727  0.37472969  1.0
  C  C49  1  0.22961651  0.48297483  0.40976346  1.0
  C  C50  1  0.18640808  0.51750216  0.44394465  1.0
  C  C51  1  0.18718214  0.58293324  0.44364198  1.0
  C  C52  1  0.25200821  0.72240601  0.35912799  1.0
  C  C53  1  0.22911406  0.24978628  0.17574832  1.0
  C  C54  1  0.17560612  0.25836792  0.14007794  1.0
  C  C55  1  0.17787008  0.25624757  0.07450151  1.0
  C  C56  1  0.23334443  0.24573017  0.04183772  1.0
  C  C57  1  0.28653273  0.23789635  0.07837203  1.0
  C  C58  1  0.28443777  0.23971832  0.14386626  1.0
  C  C59  1  0.23579086  0.24283601  0.97346945  1.0
  C  C60  1  0.24055672  0.24087876  0.84570473  1.0
  C  C61  1  0.23828804  0.24325726  0.77656410  1.0
  C  C62  1  0.25245486  0.19138973  0.73823267  1.0
  C  C63  1  0.24897654  0.19486197  0.67258512  1.0
  C  C64  1  0.22935406  0.24998590  0.64307808  1.0
  C  C65  1  0.21438880  0.30127891  0.68023533  1.0
  C  C66  1  0.21922203  0.29814310  0.74543844  1.0
  C  C67  1  0.28180027  0.20825988  0.88336412  1.0
  C  C68  1  0.22930597  0.24994248  0.57316209  1.0
  C  C69  1  0.22948537  0.41313360  0.40979472  1.0
  C  C70  1  0.22914727  0.24981364  0.24566476  1.0
  C  C71  1  0.39123773  0.24926615  0.40920572  1.0
  C  C72  1  0.22898027  0.08598494  0.40965307  1.0
  C  C73  1  0.06784605  0.25044183  0.41022105  1.0
  N  N74  1  0.20914363  0.71291589  0.46155213  1.0
  N  N75  1  0.25065548  0.78615122  0.35987561  1.0
  N  N76  1  0.19449375  0.27614602  0.94004830  1.0
  N  N77  1  0.19649086  0.27454420  0.87565199  1.0
  N  N78  1  0.28002559  0.20764960  0.94678035  1.0
  Cl  Cl79  1  0.79858681  0.16807011  0.30123065  1.0
  Cl  Cl80  1  0.66717052  0.30742418  0.51672525  1.0
  Cl  Cl81  1  0.34431829  0.16584614  0.85593240  1.0
  O  O82  1  0.22922703  0.24987828  0.40973257  1.0
  O  O83  1  0.26724887  0.21108781  0.26898326  1.0
  O  O84  1  0.09042302  0.28897799  0.37157078  1.0
  O  O85  1  0.19088685  0.10958106  0.44842078  1.0
  O  O86  1  0.19106898  0.28855764  0.26926898  1.0
  O  O87  1  0.26714522  0.10926222  0.37090842  1.0
  O  O88  1  0.09034384  0.21182633  0.44879763  1.0
  O  O89  1  0.19108850  0.21148626  0.55044406  1.0
  O  O90  1  0.36814616  0.28796039  0.44793175  1.0
  O  O91  1  0.26750020  0.28838070  0.55023356  1.0
  O  O92  1  0.36799354  0.21074779  0.37062968  1.0
  O  O93  1  0.19127134  0.39046353  0.37129210  1.0
  O  O94  1  0.26760386  0.39020553  0.44830843  1.0
  F  F95  1  0.98722811  0.25346020  0.52066751  1.0
  F  F96  1  0.86443816  0.25278394  0.51158194  1.0
  F  F97  1  0.58341771  0.36111784  0.43062578  1.0
  F  F98  1  0.58740259  0.14544682  0.37270732  1.0
  F  F99  1  0.88312582  0.26717020  0.28925471  1.0
  F  F100  1  0.21304439  0.01025972  0.29977582  1.0
  F  F101  1  0.24129270  0.01485675  0.52053740  1.0
  F  F102  1  0.24247419  0.89021191  0.52313495  1.0
  F  F103  1  0.14275447  0.48840367  0.47803289  1.0
  F  F104  1  0.31918382  0.60893094  0.34078023  1.0
  F  F105  1  0.12056869  0.26864466  0.16727886  1.0
  F  F106  1  0.12455565  0.26332920  0.04312806  1.0
  F  F107  1  0.34213099  0.22925419  0.05129628  1.0
  F  F108  1  0.33749799  0.23173734  0.17566357  1.0
  F  F109  1  0.20542014  0.35012095  0.77819380  1.0
  F  F110  1  0.19492728  0.35491973  0.65381065  1.0
  Zn  Zn0  1  0.53104576  0.44713493  0.60695594  1.0
  Zn  Zn1  1  0.42735693  0.55257990  0.60734425  1.0
  Zn  Zn2  1  0.42725002  0.44756858  0.71245821  1.0
  Zn  Zn3  1  0.53125384  0.55222904  0.71217141  1.0
  H  H4  1  0.24864268  0.50163863  0.55881236  1.0
  H  H5  1  0.72069511  0.40321004  0.62627790  1.0
  H  H6  1  0.71747951  0.59356503  0.69466815  1.0
  H  H7  1  0.03629166  0.56310498  0.72842947  1.0
  H  H8  1  0.94385253  0.45832392  0.49634165  1.0
  H  H9  1  0.87242604  0.47919225  0.52737530  1.0
  H  H10  1  0.90431842  0.40319690  0.54363686  1.0
  H  H11  1  0.46571414  0.14077229  0.56200751  1.0
  H  H12  1  0.44051775  0.04666903  0.75581251  1.0
  H  H13  1  0.55895087  0.73995674  0.59753602  1.0
  H  H14  1  0.40250921  0.85789286  0.72131375  1.0
  H  H15  1  0.51957453  0.95230719  0.56577714  1.0
  H  H16  1  0.51576529  0.39638863  0.00824648  1.0
  H  H17  1  0.51120771  0.40375463  0.89466264  1.0
  C  C18  1  0.24880680  0.50052580  0.66032397  1.0
  C  C19  1  0.22081776  0.50293541  0.60148673  1.0
  C  C20  1  0.15632887  0.50812429  0.59684849  1.0
  C  C21  1  0.11684761  0.50580575  0.64950735  1.0
  C  C22  1  0.14721248  0.50355987  0.70795547  1.0
  C  C23  1  0.21163430  0.50228459  0.71335800  1.0
  C  C24  1  0.04760507  0.50611270  0.64512692  1.0
  C  C25  1  0.01258828  0.47372620  0.59956933  1.0
  C  C26  1  0.94644950  0.47864732  0.59617264  1.0
  C  C27  1  0.91206543  0.50565087  0.64688893  1.0
  C  C28  1  0.84246461  0.50369009  0.65040796  1.0
  C  C29  1  0.80830442  0.44914546  0.63706751  1.0
  C  C30  1  0.74351453  0.44684454  0.63863209  1.0
  C  C31  1  0.71027703  0.49900616  0.65898063  1.0
  C  C32  1  0.74213219  0.55307849  0.67594241  1.0
  C  C33  1  0.80651244  0.55573052  0.66893348  1.0
  C  C34  1  0.94790035  0.53297560  0.69517563  1.0
  C  C35  1  0.01278894  0.53734152  0.69129929  1.0
  C  C36  1  0.91471482  0.45301919  0.53816389  1.0
  C  C37  1  0.47887560  0.26614374  0.65961925  1.0
  C  C38  1  0.47130152  0.23132693  0.60498104  1.0
  C  C39  1  0.47126270  0.16587604  0.60611676  1.0
  C  C40  1  0.47840416  0.13269760  0.66275951  1.0
  C  C41  1  0.48530682  0.16857880  0.71744856  1.0
  C  C42  1  0.48562277  0.23404219  0.71598942  1.0
  C  C43  1  0.47917821  0.06369446  0.66308719  1.0
  C  C44  1  0.45884150  0.02662991  0.71275710  1.0
  C  C45  1  0.48179934  0.93532430  0.65882965  1.0
  C  C46  1  0.48153867  0.86630629  0.65850807  1.0
  C  C47  1  0.52478729  0.83062844  0.62446458  1.0
  C  C48  1  0.52416575  0.76517727  0.62472969  1.0
  C  C49  1  0.47961651  0.73297483  0.65976346  1.0
  C  C50  1  0.43640808  0.76750216  0.69394465  1.0
  C  C51  1  0.43718214  0.83293324  0.69364198  1.0
  C  C52  1  0.50200821  0.97240601  0.60912799  1.0
  C  C53  1  0.47911406  0.49978628  0.42574832  1.0
  C  C54  1  0.42560612  0.50836792  0.39007794  1.0
  C  C55  1  0.42787008  0.50624757  0.32450151  1.0
  C  C56  1  0.48334443  0.49573017  0.29183772  1.0
  C  C57  1  0.53653273  0.48789635  0.32837203  1.0
  C  C58  1  0.53443777  0.48971832  0.39386626  1.0
  C  C59  1  0.48579086  0.49283601  0.22346945  1.0
  C  C60  1  0.49055672  0.49087876  0.09570473  1.0
  C  C61  1  0.48828804  0.49325726  0.02656410  1.0
  C  C62  1  0.50245486  0.44138973  0.98823267  1.0
  C  C63  1  0.49897654  0.44486197  0.92258512  1.0
  C  C64  1  0.47935406  0.49998590  0.89307808  1.0
  C  C65  1  0.46438880  0.55127891  0.93023533  1.0
  C  C66  1  0.46922203  0.54814310  0.99543844  1.0
  C  C67  1  0.53180027  0.45825988  0.13336412  1.0
  C  C68  1  0.47930597  0.49994248  0.82316209  1.0
  C  C69  1  0.47948537  0.66313360  0.65979472  1.0
  C  C70  1  0.47914727  0.49981364  0.49566476  1.0
  C  C71  1  0.64123773  0.49926615  0.65920572  1.0
  C  C72  1  0.47898027  0.33598494  0.65965307  1.0
  C  C73  1  0.31784605  0.50044183  0.66022105  1.0
  N  N74  1  0.45914363  0.96291589  0.71155213  1.0
  N  N75  1  0.50065548  0.03615122  0.60987561  1.0
  N  N76  1  0.44449375  0.52614602  0.19004830  1.0
  N  N77  1  0.44649086  0.52454420  0.12565199  1.0
  N  N78  1  0.53002559  0.45764960  0.19678035  1.0
  Cl  Cl79  1  0.04858681  0.41807011  0.55123065  1.0
  Cl  Cl80  1  0.91717052  0.55742418  0.76672525  1.0
  Cl  Cl81  1  0.59431829  0.41584614  0.10593240  1.0
  O  O82  1  0.47922703  0.49987828  0.65973257  1.0
  O  O83  1  0.51724887  0.46108781  0.51898326  1.0
  O  O84  1  0.34042302  0.53897799  0.62157078  1.0
  O  O85  1  0.44088685  0.35958106  0.69842078  1.0
  O  O86  1  0.44106898  0.53855764  0.51926898  1.0
  O  O87  1  0.51714522  0.35926222  0.62090842  1.0
  O  O88  1  0.34034384  0.46182633  0.69879763  1.0
  O  O89  1  0.44108850  0.46148626  0.80044406  1.0
  O  O90  1  0.61814616  0.53796039  0.69793175  1.0
  O  O91  1  0.51750020  0.53838070  0.80023356  1.0
  O  O92  1  0.61799354  0.46074779  0.62062968  1.0
  O  O93  1  0.44127134  0.64046353  0.62129210  1.0
  O  O94  1  0.51760386  0.64020553  0.69830843  1.0
  F  F95  1  0.23722811  0.50346020  0.77066751  1.0
  F  F96  1  0.11443816  0.50278394  0.76158194  1.0
  F  F97  1  0.83341771  0.61111784  0.68062578  1.0
  F  F98  1  0.83740259  0.39544682  0.62270732  1.0
  F  F99  1  0.13312582  0.51717020  0.53925471  1.0
  F  F100  1  0.46304439  0.26025972  0.54977582  1.0
  F  F101  1  0.49129270  0.26485675  0.77053740  1.0
  F  F102  1  0.49247419  0.14021191  0.77313495  1.0
  F  F103  1  0.39275447  0.73840367  0.72803289  1.0
  F  F104  1  0.56918382  0.85893094  0.59078023  1.0
  F  F105  1  0.37056869  0.51864466  0.41727886  1.0
  F  F106  1  0.37455565  0.51332920  0.29312806  1.0
  F  F107  1  0.59213099  0.47925419  0.30129628  1.0
  F  F108  1  0.58749799  0.48173734  0.42566357  1.0
  F  F109  1  0.45542014  0.60012095  0.02819380  1.0
  F  F110  1  0.44492728  0.60491973  0.90381065  1.0
