# generated using pymatgen
data_Zn2H20C48N4Cl3O9F11
_symmetry_space_group_name_H-M   'P 1'
_cell_length_a   18.58618350
_cell_length_b   14.28715728
_cell_length_c   19.23822212
_cell_angle_alpha   85.41951498
_cell_angle_beta   92.08281396
_cell_angle_gamma   90.77972092
_symmetry_Int_Tables_number   1
_chemical_formula_structural   Zn2H20C48N4Cl3O9F11
_chemical_formula_sum   'Zn2 H20 C48 N4 Cl3 O9 F11'
_cell_volume   5088.61490091
_cell_formula_units_Z   1
loop_
 _symmetry_equiv_pos_site_id
 _symmetry_equiv_pos_as_xyz
  1  'x, y, z'
loop_
 _atom_site_type_symbol
 _atom_site_label
 _atom_site_symmetry_multiplicity
 _atom_site_fract_x
 _atom_site_fract_y
 _atom_site_fract_z
 _atom_site_occupancy
  Zn  Zn0  1  0.80577644  0.01085692  0.26161458  1.0
  Zn  Zn1  1  0.96350624  0.00795673  0.26749529  1.0
  H  H2  1  0.69235374  0.95178947  0.35854059  1.0
  H  H3  1  0.07586999  0.86416009  0.25791504  1.0
  H  H4  1  0.42029377  0.23748275  0.20557222  1.0
  H  H5  1  0.50467798  0.19247939  0.22815671  1.0
  H  H6  1  0.46552328  0.17763775  0.14304379  1.0
  H  H7  1  0.99407069  0.59148787  0.26115894  1.0
  H  H8  1  0.03524322  0.41043198  0.19964821  1.0
  H  H9  1  0.00459527  0.51475634  0.15184919  1.0
  H  H10  1  0.08664403  0.51508524  0.20117542  1.0
  H  H11  1  0.04225446  0.40578203  0.33598054  1.0
  H  H12  1  0.08973920  0.51387264  0.32943646  1.0
  H  H13  1  0.01037818  0.50333865  0.37742260  1.0
  H  H14  1  0.73982608  0.63758816  0.30269396  1.0
  H  H15  1  0.68316989  0.59130519  0.23770660  1.0
  H  H16  1  0.68833673  0.53562417  0.32393169  1.0
  H  H17  1  0.96365567  0.89962795  0.93368648  1.0
  H  H18  1  0.79990841  0.11432025  0.91615982  1.0
  H  H19  1  0.99375757  0.97749640  0.82486045  1.0
  H  H20  1  0.99217650  0.05764970  0.60846011  1.0
  H  H21  1  0.76811668  0.03656722  0.81416193  1.0
  C  C22  1  0.58543640  0.97973682  0.31461953  1.0
  C  C23  1  0.54345893  0.00945466  0.25514563  1.0
  C  C24  1  0.58298353  0.03998834  0.19650582  1.0
  C  C25  1  0.65807057  0.04413832  0.20074359  1.0
  C  C26  1  0.66043817  0.97903190  0.31354786  1.0
  C  C27  1  0.46260032  0.00863939  0.25479710  1.0
  C  C28  1  0.42333196  0.93065133  0.28508983  1.0
  C  C29  1  0.34808645  0.93467571  0.29464343  1.0
  C  C30  1  0.30539341  0.00638894  0.26003542  1.0
  C  C31  1  0.22481220  0.00643002  0.26355725  1.0
  C  C32  1  0.18637671  0.08693183  0.27626794  1.0
  C  C33  1  0.11144109  0.08444860  0.27744531  1.0
  C  C34  1  0.10796115  0.92784742  0.26117447  1.0
  C  C35  1  0.18225338  0.92591562  0.25456919  1.0
  C  C36  1  0.34396887  0.07767983  0.22115919  1.0
  C  C37  1  0.42058847  0.08572023  0.22566624  1.0
  C  C38  1  0.45494055  0.17770387  0.19853490  1.0
  C  C39  1  0.87942277  0.73444934  0.26476165  1.0
  C  C40  1  0.86865942  0.64412091  0.26435672  1.0
  C  C41  1  0.85611174  0.53881828  0.26388397  1.0
  C  C42  1  0.91317759  0.47999607  0.26522679  1.0
  C  C43  1  0.90063034  0.37469347  0.26475436  1.0
  C  C44  1  0.88986683  0.28436463  0.26434880  1.0
  C  C45  1  0.99211086  0.51458449  0.26436420  1.0
  C  C46  1  0.03148630  0.48673162  0.20052188  1.0
  C  C47  1  0.03567561  0.48206768  0.33076178  1.0
  C  C48  1  0.77735617  0.50764503  0.26090836  1.0
  C  C49  1  0.71936468  0.57258303  0.28273164  1.0
  C  C50  1  0.88488733  0.00955648  0.06038173  1.0
  C  C51  1  0.92923868  0.94998656  0.02805719  1.0
  C  C52  1  0.92770278  0.94835663  0.95540197  1.0
  C  C53  1  0.88148100  0.00677548  0.91237650  1.0
  C  C54  1  0.83664564  0.06627318  0.94579773  1.0
  C  C55  1  0.83868774  0.06720387  0.01844087  1.0
  C  C56  1  0.88097116  0.00682144  0.83577356  1.0
  C  C57  1  0.94163105  0.99099177  0.79872780  1.0
  C  C58  1  0.88061340  0.00820773  0.69286816  1.0
  C  C59  1  0.88131178  0.00907039  0.61678288  1.0
  C  C60  1  0.94351464  0.03603213  0.58037241  1.0
  C  C61  1  0.94475089  0.03622780  0.50781850  1.0
  C  C62  1  0.88440225  0.00925750  0.46872875  1.0
  C  C63  1  0.82277918  0.98248719  0.50449487  1.0
  C  C64  1  0.82108298  0.98239164  0.57700184  1.0
  C  C65  1  0.82021582  0.02378803  0.79297356  1.0
  C  C66  1  0.88442150  0.00558390  0.39154514  1.0
  C  C67  1  0.88486294  0.01323091  0.13756487  1.0
  C  C68  1  0.88789226  0.18042104  0.26165607  1.0
  C  C69  1  0.88139210  0.83839264  0.26745397  1.0
  N  N70  1  0.69813037  0.01283692  0.25759555  1.0
  N  N71  1  0.07115246  0.00598439  0.27150865  1.0
  N  N72  1  0.94325234  0.99157659  0.72852306  1.0
  N  N73  1  0.81852263  0.02555608  0.72259985  1.0
  Cl  Cl74  1  0.31069307  0.85368457  0.35661344  1.0
  Cl  Cl75  1  0.29769847  0.15484761  0.16032374  1.0
  Cl  Cl76  1  0.46566287  0.82240332  0.30438336  1.0
  O  O77  1  0.75896437  0.43196406  0.23887637  1.0
  O  O78  1  0.94471231  0.01335939  0.16569994  1.0
  O  O79  1  0.94428538  0.00325353  0.36787319  1.0
  O  O80  1  0.94708726  0.14443675  0.26298682  1.0
  O  O81  1  0.94191038  0.87217618  0.27058626  1.0
  O  O82  1  0.82737226  0.14663748  0.25852362  1.0
  O  O83  1  0.82457040  0.00545539  0.36340995  1.0
  O  O84  1  0.82499733  0.01556121  0.16123586  1.0
  O  O85  1  0.82219540  0.87437799  0.26612223  1.0
  F  F86  1  0.55485470  0.95138274  0.37569477  1.0
  F  F87  1  0.69354051  0.08267461  0.14572590  1.0
  F  F88  1  0.54953485  0.06700543  0.13564733  1.0
  F  F89  1  0.21191384  0.84541297  0.23918773  1.0
  F  F90  1  0.07620345  0.16436851  0.28428404  1.0
  F  F91  1  0.22103156  0.16766239  0.28751517  1.0
  F  F92  1  0.97634217  0.89404779  0.06505201  1.0
  F  F93  1  0.79573228  0.12715444  0.04704179  1.0
  F  F94  1  0.76009648  0.95336494  0.60766978  1.0
  F  F95  1  0.76322260  0.95519524  0.46956335  1.0
  F  F96  1  0.00624788  0.06318130  0.47757339  1.0
  Zn  Zn0  1  0.13877644  0.34385692  0.59461458  1.0
  Zn  Zn1  1  0.29650624  0.34095673  0.60049529  1.0
  H  H2  1  0.02535374  0.28478947  0.69154059  1.0
  H  H3  1  0.40886999  0.19716009  0.59091504  1.0
  H  H4  1  0.75329377  0.57048275  0.53857222  1.0
  H  H5  1  0.83767798  0.52547939  0.56115671  1.0
  H  H6  1  0.79852328  0.51063775  0.47604379  1.0
  H  H7  1  0.32707069  0.92448787  0.59415894  1.0
  H  H8  1  0.36824322  0.74343198  0.53264821  1.0
  H  H9  1  0.33759527  0.84775634  0.48484919  1.0
  H  H10  1  0.41964403  0.84808524  0.53417542  1.0
  H  H11  1  0.37525446  0.73878203  0.66898054  1.0
  H  H12  1  0.42273920  0.84687264  0.66243646  1.0
  H  H13  1  0.34337818  0.83633865  0.71042260  1.0
  H  H14  1  0.07282608  0.97058816  0.63569396  1.0
  H  H15  1  0.01616989  0.92430519  0.57070660  1.0
  H  H16  1  0.02133673  0.86862417  0.65693169  1.0
  H  H17  1  0.29665567  0.23262795  0.26668648  1.0
  H  H18  1  0.13290841  0.44732025  0.24915982  1.0
  H  H19  1  0.32675757  0.31049640  0.15786045  1.0
  H  H20  1  0.32517650  0.39064970  0.94146011  1.0
  H  H21  1  0.10111668  0.36956722  0.14716193  1.0
  C  C22  1  0.91843640  0.31273682  0.64761953  1.0
  C  C23  1  0.87645893  0.34245466  0.58814563  1.0
  C  C24  1  0.91598353  0.37298834  0.52950582  1.0
  C  C25  1  0.99107057  0.37713832  0.53374359  1.0
  C  C26  1  0.99343817  0.31203190  0.64654786  1.0
  C  C27  1  0.79560032  0.34163939  0.58779710  1.0
  C  C28  1  0.75633196  0.26365133  0.61808983  1.0
  C  C29  1  0.68108645  0.26767571  0.62764343  1.0
  C  C30  1  0.63839341  0.33938894  0.59303542  1.0
  C  C31  1  0.55781220  0.33943002  0.59655725  1.0
  C  C32  1  0.51937671  0.41993183  0.60926794  1.0
  C  C33  1  0.44444109  0.41744860  0.61044531  1.0
  C  C34  1  0.44096115  0.26084742  0.59417447  1.0
  C  C35  1  0.51525338  0.25891562  0.58756919  1.0
  C  C36  1  0.67696887  0.41067983  0.55415919  1.0
  C  C37  1  0.75358847  0.41872023  0.55866624  1.0
  C  C38  1  0.78794055  0.51070387  0.53153490  1.0
  C  C39  1  0.21242277  0.06744934  0.59776165  1.0
  C  C40  1  0.20165942  0.97712091  0.59735672  1.0
  C  C41  1  0.18911174  0.87181828  0.59688397  1.0
  C  C42  1  0.24617759  0.81299607  0.59822679  1.0
  C  C43  1  0.23363034  0.70769347  0.59775436  1.0
  C  C44  1  0.22286683  0.61736463  0.59734880  1.0
  C  C45  1  0.32511086  0.84758449  0.59736420  1.0
  C  C46  1  0.36448630  0.81973162  0.53352188  1.0
  C  C47  1  0.36867561  0.81506768  0.66376178  1.0
  C  C48  1  0.11035617  0.84064503  0.59390836  1.0
  C  C49  1  0.05236468  0.90558303  0.61573164  1.0
  C  C50  1  0.21788733  0.34255648  0.39338173  1.0
  C  C51  1  0.26223868  0.28298656  0.36105719  1.0
  C  C52  1  0.26070278  0.28135663  0.28840197  1.0
  C  C53  1  0.21448100  0.33977548  0.24537650  1.0
  C  C54  1  0.16964564  0.39927318  0.27879773  1.0
  C  C55  1  0.17168774  0.40020387  0.35144087  1.0
  C  C56  1  0.21397116  0.33982144  0.16877356  1.0
  C  C57  1  0.27463105  0.32399177  0.13172780  1.0
  C  C58  1  0.21361340  0.34120773  0.02586816  1.0
  C  C59  1  0.21431178  0.34207039  0.94978288  1.0
  C  C60  1  0.27651464  0.36903213  0.91337241  1.0
  C  C61  1  0.27775089  0.36922780  0.84081850  1.0
  C  C62  1  0.21740225  0.34225750  0.80172875  1.0
  C  C63  1  0.15577918  0.31548719  0.83749487  1.0
  C  C64  1  0.15408298  0.31539164  0.91000184  1.0
  C  C65  1  0.15321582  0.35678803  0.12597356  1.0
  C  C66  1  0.21742150  0.33858390  0.72454514  1.0
  C  C67  1  0.21786294  0.34623091  0.47056487  1.0
  C  C68  1  0.22089226  0.51342104  0.59465607  1.0
  C  C69  1  0.21439210  0.17139264  0.60045397  1.0
  N  N70  1  0.03113037  0.34583692  0.59059555  1.0
  N  N71  1  0.40415246  0.33898439  0.60450865  1.0
  N  N72  1  0.27625234  0.32457659  0.06152306  1.0
  N  N73  1  0.15152263  0.35855608  0.05559985  1.0
  Cl  Cl74  1  0.64369307  0.18668457  0.68961344  1.0
  Cl  Cl75  1  0.63069847  0.48784761  0.49332374  1.0
  Cl  Cl76  1  0.79866287  0.15540332  0.63738336  1.0
  O  O77  1  0.09196437  0.76496406  0.57187637  1.0
  O  O78  1  0.27771231  0.34635939  0.49869994  1.0
  O  O79  1  0.27728538  0.33625353  0.70087319  1.0
  O  O80  1  0.28008726  0.47743675  0.59598682  1.0
  O  O81  1  0.27491038  0.20517618  0.60358626  1.0
  O  O82  1  0.16037226  0.47963748  0.59152362  1.0
  O  O83  1  0.15757040  0.33845539  0.69640995  1.0
  O  O84  1  0.15799733  0.34856121  0.49423586  1.0
  O  O85  1  0.15519540  0.20737799  0.59912223  1.0
  F  F86  1  0.88785470  0.28438274  0.70869477  1.0
  F  F87  1  0.02654051  0.41567461  0.47872590  1.0
  F  F88  1  0.88253485  0.40000543  0.46864733  1.0
  F  F89  1  0.54491384  0.17841297  0.57218773  1.0
  F  F90  1  0.40920345  0.49736851  0.61728404  1.0
  F  F91  1  0.55403156  0.50066239  0.62051517  1.0
  F  F92  1  0.30934217  0.22704779  0.39805201  1.0
  F  F93  1  0.12873228  0.46015444  0.38004179  1.0
  F  F94  1  0.09309648  0.28636494  0.94066978  1.0
  F  F95  1  0.09622260  0.28819524  0.80256335  1.0
  F  F96  1  0.33924788  0.39618130  0.81057339  1.0
  Zn  Zn0  1  0.47177644  0.67685692  0.92761458  1.0
  Zn  Zn1  1  0.62950624  0.67395673  0.93349529  1.0
  H  H2  1  0.35835374  0.61778947  0.02454059  1.0
  H  H3  1  0.74186999  0.53016009  0.92391504  1.0
  H  H4  1  0.08629377  0.90348275  0.87157222  1.0
  H  H5  1  0.17067798  0.85847939  0.89415671  1.0
  H  H6  1  0.13152328  0.84363775  0.80904379  1.0
  H  H7  1  0.66007069  0.25748787  0.92715894  1.0
  H  H8  1  0.70124322  0.07643198  0.86564821  1.0
  H  H9  1  0.67059527  0.18075634  0.81784919  1.0
  H  H10  1  0.75264403  0.18108524  0.86717542  1.0
  H  H11  1  0.70825446  0.07178203  0.00198054  1.0
  H  H12  1  0.75573920  0.17987264  0.99543646  1.0
  H  H13  1  0.67637818  0.16933865  0.04342260  1.0
  H  H14  1  0.40582608  0.30358816  0.96869396  1.0
  H  H15  1  0.34916989  0.25730519  0.90370660  1.0
  H  H16  1  0.35433673  0.20162417  0.98993169  1.0
  H  H17  1  0.62965567  0.56562795  0.59968648  1.0
  H  H18  1  0.46590841  0.78032025  0.58215982  1.0
  H  H19  1  0.65975757  0.64349640  0.49086045  1.0
  H  H20  1  0.65817650  0.72364970  0.27446011  1.0
  H  H21  1  0.43411668  0.70256722  0.48016193  1.0
  C  C22  1  0.25143640  0.64573682  0.98061953  1.0
  C  C23  1  0.20945893  0.67545466  0.92114563  1.0
  C  C24  1  0.24898353  0.70598834  0.86250582  1.0
  C  C25  1  0.32407057  0.71013832  0.86674359  1.0
  C  C26  1  0.32643817  0.64503190  0.97954786  1.0
  C  C27  1  0.12860032  0.67463939  0.92079710  1.0
  C  C28  1  0.08933196  0.59665133  0.95108983  1.0
  C  C29  1  0.01408645  0.60067571  0.96064343  1.0
  C  C30  1  0.97139341  0.67238894  0.92603542  1.0
  C  C31  1  0.89081220  0.67243002  0.92955725  1.0
  C  C32  1  0.85237671  0.75293183  0.94226794  1.0
  C  C33  1  0.77744109  0.75044860  0.94344531  1.0
  C  C34  1  0.77396115  0.59384742  0.92717447  1.0
  C  C35  1  0.84825338  0.59191562  0.92056919  1.0
  C  C36  1  0.00996887  0.74367983  0.88715919  1.0
  C  C37  1  0.08658847  0.75172023  0.89166624  1.0
  C  C38  1  0.12094055  0.84370387  0.86453490  1.0
  C  C39  1  0.54542277  0.40044934  0.93076165  1.0
  C  C40  1  0.53465942  0.31012091  0.93035672  1.0
  C  C41  1  0.52211174  0.20481828  0.92988397  1.0
  C  C42  1  0.57917759  0.14599607  0.93122679  1.0
  C  C43  1  0.56663034  0.04069347  0.93075436  1.0
  C  C44  1  0.55586683  0.95036463  0.93034880  1.0
  C  C45  1  0.65811086  0.18058449  0.93036420  1.0
  C  C46  1  0.69748630  0.15273162  0.86652188  1.0
  C  C47  1  0.70167561  0.14806768  0.99676178  1.0
  C  C48  1  0.44335617  0.17364503  0.92690836  1.0
  C  C49  1  0.38536468  0.23858303  0.94873164  1.0
  C  C50  1  0.55088733  0.67555648  0.72638173  1.0
  C  C51  1  0.59523868  0.61598656  0.69405719  1.0
  C  C52  1  0.59370278  0.61435663  0.62140197  1.0
  C  C53  1  0.54748100  0.67277548  0.57837650  1.0
  C  C54  1  0.50264564  0.73227318  0.61179773  1.0
  C  C55  1  0.50468774  0.73320387  0.68444087  1.0
  C  C56  1  0.54697116  0.67282144  0.50177356  1.0
  C  C57  1  0.60763105  0.65699177  0.46472780  1.0
  C  C58  1  0.54661340  0.67420773  0.35886816  1.0
  C  C59  1  0.54731178  0.67507039  0.28278288  1.0
  C  C60  1  0.60951464  0.70203213  0.24637241  1.0
  C  C61  1  0.61075089  0.70222780  0.17381850  1.0
  C  C62  1  0.55040225  0.67525750  0.13472875  1.0
  C  C63  1  0.48877918  0.64848719  0.17049487  1.0
  C  C64  1  0.48708298  0.64839164  0.24300184  1.0
  C  C65  1  0.48621582  0.68978803  0.45897356  1.0
  C  C66  1  0.55042150  0.67158390  0.05754514  1.0
  C  C67  1  0.55086294  0.67923091  0.80356487  1.0
  C  C68  1  0.55389226  0.84642104  0.92765607  1.0
  C  C69  1  0.54739210  0.50439264  0.93345397  1.0
  N  N70  1  0.36413037  0.67883692  0.92359555  1.0
  N  N71  1  0.73715246  0.67198439  0.93750865  1.0
  N  N72  1  0.60925234  0.65757659  0.39452306  1.0
  N  N73  1  0.48452263  0.69155608  0.38859985  1.0
  Cl  Cl74  1  0.97669307  0.51968457  0.02261344  1.0
  Cl  Cl75  1  0.96369847  0.82084761  0.82632374  1.0
  Cl  Cl76  1  0.13166287  0.48840332  0.97038336  1.0
  O  O77  1  0.42496437  0.09796406  0.90487637  1.0
  O  O78  1  0.61071231  0.67935939  0.83169994  1.0
  O  O79  1  0.61028538  0.66925353  0.03387319  1.0
  O  O80  1  0.61308726  0.81043675  0.92898682  1.0
  O  O81  1  0.60791038  0.53817618  0.93658626  1.0
  O  O82  1  0.49337226  0.81263748  0.92452362  1.0
  O  O83  1  0.49057040  0.67145539  0.02940995  1.0
  O  O84  1  0.49099733  0.68156121  0.82723586  1.0
  O  O85  1  0.48819540  0.54037799  0.93212223  1.0
  F  F86  1  0.22085470  0.61738274  0.04169477  1.0
  F  F87  1  0.35954051  0.74867461  0.81172590  1.0
  F  F88  1  0.21553485  0.73300543  0.80164733  1.0
  F  F89  1  0.87791384  0.51141297  0.90518773  1.0
  F  F90  1  0.74220345  0.83036851  0.95028404  1.0
  F  F91  1  0.88703156  0.83366239  0.95351517  1.0
  F  F92  1  0.64234217  0.56004779  0.73105201  1.0
  F  F93  1  0.46173228  0.79315444  0.71304179  1.0
  F  F94  1  0.42609648  0.61936494  0.27366978  1.0
  F  F95  1  0.42922260  0.62119524  0.13556335  1.0
  F  F96  1  0.67224788  0.72918130  0.14357339  1.0
