# generated using pymatgen
data_Zn4H24C58N3O16F15
_symmetry_space_group_name_H-M   'P 1'
_cell_length_a   21.39597341
_cell_length_b   21.16955092
_cell_length_c   21.50483665
_cell_angle_alpha   90.18078371
_cell_angle_beta   90.00828287
_cell_angle_gamma   89.97387132
_symmetry_Int_Tables_number   1
_chemical_formula_structural   Zn4H24C58N3O16F15
_chemical_formula_sum   'Zn4 H24 C58 N3 O16 F15'
_cell_volume   9740.41882276
_cell_formula_units_Z   1
loop_
 _symmetry_equiv_pos_site_id
 _symmetry_equiv_pos_as_xyz
  1  'x, y, z'
loop_
 _atom_site_type_symbol
 _atom_site_label
 _atom_site_symmetry_multiplicity
 _atom_site_fract_x
 _atom_site_fract_y
 _atom_site_fract_z
 _atom_site_occupancy
  Zn  Zn0  1  0.78002409  0.69381593  0.85677177  1.0
  Zn  Zn1  1  0.67520928  0.79966698  0.85685906  1.0
  Zn  Zn2  1  0.67515771  0.69390839  0.96085783  1.0
  Zn  Zn3  1  0.77984020  0.79979617  0.96120978  1.0
  H  H4  1  0.49008265  0.81646604  0.83522412  1.0
  H  H5  1  0.36851577  0.67962642  0.97772566  1.0
  H  H6  1  0.28425157  0.85292578  0.88241777  1.0
  H  H7  1  0.17067826  0.85194825  0.88440369  1.0
  H  H8  1  0.08505741  0.68102670  0.98249314  1.0
  H  H9  1  0.96672149  0.81645108  0.83603371  1.0
  H  H10  1  0.08067235  0.81852180  0.83393020  1.0
  H  H11  1  0.17975457  0.65462006  0.93196550  1.0
  H  H12  1  0.80877498  0.40238706  0.82264494  1.0
  H  H13  1  0.70998470  0.28869398  0.90713508  1.0
  H  H14  1  0.68703195  0.14401205  0.76640029  1.0
  H  H15  1  0.76803323  0.16124787  0.75546256  1.0
  H  H16  1  0.75019976  0.24248803  0.68484158  1.0
  H  H17  1  0.66765188  0.23913255  0.69451193  1.0
  H  H18  1  0.70659205  0.18066349  0.59893852  1.0
  H  H19  1  0.66794662  0.12966520  0.65158584  1.0
  H  H20  1  0.79901669  0.14629438  0.63806181  1.0
  H  H21  1  0.77790023  0.97299391  0.82246019  1.0
  H  H22  1  0.78645552  0.66352394  0.55504685  1.0
  H  H23  1  0.63123066  0.78163190  0.46551028  1.0
  H  H24  1  0.63150198  0.78532174  0.35387745  1.0
  H  H25  1  0.62781225  0.72892065  0.14728814  1.0
  H  H26  1  0.81762766  0.70626727  0.35210340  1.0
  H  H27  1  0.81985246  0.70877533  0.46362932  1.0
  C  C28  1  0.49513659  0.74653162  0.90847459  1.0
  C  C29  1  0.46416071  0.78628854  0.86690201  1.0
  C  C30  1  0.39902543  0.78790737  0.86566929  1.0
  C  C31  1  0.36238480  0.75084245  0.90560199  1.0
  C  C32  1  0.39442383  0.71007690  0.94620297  1.0
  C  C33  1  0.45961753  0.70831864  0.94749710  1.0
  C  C34  1  0.29361232  0.75398466  0.90586485  1.0
  C  C35  1  0.26047285  0.80896804  0.89301712  1.0
  C  C36  1  0.19526942  0.80811132  0.89414822  1.0
  C  C37  1  0.16272202  0.75256610  0.90786136  1.0
  C  C38  1  0.09371478  0.75017416  0.90820846  1.0
  C  C39  1  0.06074917  0.71083009  0.94924455  1.0
  C  C40  1  0.99546701  0.70927455  0.94928505  1.0
  C  C41  1  0.96061583  0.74683851  0.90921827  1.0
  C  C42  1  0.99250636  0.78635654  0.86808266  1.0
  C  C43  1  0.05797942  0.78764437  0.86748949  1.0
  C  C44  1  0.20012836  0.70029123  0.92096104  1.0
  C  C45  1  0.72770440  0.51124540  0.90843569  1.0
  C  C46  1  0.68472809  0.47049381  0.93546384  1.0
  C  C47  1  0.68664347  0.40588326  0.92374070  1.0
  C  C48  1  0.72965288  0.38063586  0.88155716  1.0
  C  C49  1  0.77301815  0.42041438  0.85362137  1.0
  C  C50  1  0.77246639  0.48528803  0.86823632  1.0
  C  C51  1  0.72988885  0.28434479  0.81510804  1.0
  C  C52  1  0.72171591  0.18153753  0.75979951  1.0
  C  C53  1  0.71078623  0.21139672  0.69583441  1.0
  C  C54  1  0.70886593  0.16000910  0.64545889  1.0
  C  C55  1  0.72987379  0.18429829  0.87592892  1.0
  C  C56  1  0.72918641  0.11388514  0.88338309  1.0
  C  C57  1  0.75925872  0.06995914  0.84513616  1.0
  C  C58  1  0.75583886  0.00493779  0.85571089  1.0
  C  C59  1  0.72745189  0.98170580  0.90933121  1.0
  C  C60  1  0.70170212  0.02477953  0.95071383  1.0
  C  C61  1  0.70137749  0.08943966  0.93741067  1.0
  C  C62  1  0.72781973  0.74655056  0.67704598  1.0
  C  C63  1  0.76110893  0.70163127  0.64342175  1.0
  C  C64  1  0.76036790  0.70075037  0.57845085  1.0
  C  C65  1  0.72651681  0.74612164  0.54459604  1.0
  C  C66  1  0.69405219  0.79189671  0.57957969  1.0
  C  C67  1  0.69404905  0.79176679  0.64444245  1.0
  C  C68  1  0.72571462  0.74549741  0.47572064  1.0
  C  C69  1  0.67343448  0.76581907  0.44182283  1.0
  C  C70  1  0.67324007  0.76706794  0.37659868  1.0
  C  C71  1  0.72458408  0.74615387  0.34182534  1.0
  C  C72  1  0.72490532  0.74725402  0.27290996  1.0
  C  C73  1  0.78000031  0.75824424  0.23902527  1.0
  C  C74  1  0.78137214  0.75760946  0.17426086  1.0
  C  C75  1  0.72731185  0.74705888  0.14017056  1.0
  C  C76  1  0.67136977  0.73716169  0.17223083  1.0
  C  C77  1  0.67070850  0.73700702  0.23720497  1.0
  C  C78  1  0.77622430  0.72412155  0.37577194  1.0
  C  C79  1  0.77718100  0.72461737  0.44095398  1.0
  C  C80  1  0.72737560  0.74696913  0.07088363  1.0
  C  C81  1  0.72746914  0.91132158  0.90924951  1.0
  C  C82  1  0.72774104  0.74662407  0.74633328  1.0
  C  C83  1  0.89097663  0.74682550  0.90913095  1.0
  C  C84  1  0.72766038  0.58162955  0.90858178  1.0
  C  C85  1  0.56477515  0.74672209  0.90868324  1.0
  N  N86  1  0.26365470  0.69975342  0.92083722  1.0
  N  N87  1  0.72911249  0.31485897  0.87221074  1.0
  N  N88  1  0.72485685  0.21747832  0.81833551  1.0
  O  O89  1  0.73284901  0.31439784  0.76639173  1.0
  O  O90  1  0.76274417  0.12065623  0.64854243  1.0
  O  O91  1  0.73200012  0.21333082  0.92588352  1.0
  O  O92  1  0.72755822  0.74679704  0.90892473  1.0
  O  O93  1  0.76621872  0.70776457  0.76955124  1.0
  O  O94  1  0.58752746  0.78562226  0.87054436  1.0
  O  O95  1  0.68912377  0.60528254  0.94686692  1.0
  O  O96  1  0.68921157  0.78553274  0.76961580  1.0
  O  O97  1  0.76616874  0.60521437  0.87039504  1.0
  O  O98  1  0.58748895  0.70792158  0.94695188  1.0
  O  O99  1  0.68894535  0.70804699  0.04813632  1.0
  O  O100  1  0.86753976  0.78575366  0.94746655  1.0
  O  O101  1  0.76585566  0.78584314  0.04839512  1.0
  O  O102  1  0.86767513  0.70789002  0.87073568  1.0
  O  O103  1  0.68903386  0.88829788  0.87088505  1.0
  O  O104  1  0.76590566  0.88839256  0.94755135  1.0
  F  F105  1  0.48768439  0.66905675  0.98763163  1.0
  F  F106  1  0.96684512  0.67040709  0.98939308  1.0
  F  F107  1  0.37198313  0.82639013  0.82412759  1.0
  F  F108  1  0.81721421  0.52122112  0.84266793  1.0
  F  F109  1  0.67383875  0.12749118  0.97922772  1.0
  F  F110  1  0.67738351  0.00476962  0.00479147  1.0
  F  F111  1  0.79725208  0.08732737  0.79907896  1.0
  F  F112  1  0.64456646  0.36806751  0.95063525  1.0
  F  F113  1  0.64024579  0.49291914  0.97375893  1.0
  F  F114  1  0.79572037  0.65823656  0.67302373  1.0
  F  F115  1  0.66209966  0.83717410  0.67422639  1.0
  F  F116  1  0.66255475  0.83830342  0.55093268  1.0
  F  F117  1  0.83402831  0.77034041  0.26856432  1.0
  F  F118  1  0.61568611  0.72567504  0.26487795  1.0
  F  F119  1  0.83611241  0.76707768  0.14529874  1.0
  Zn  Zn0  1  0.03002409  0.94381593  0.10677177  1.0
  Zn  Zn1  1  0.92520928  0.04966698  0.10685906  1.0
  Zn  Zn2  1  0.92515771  0.94390839  0.21085783  1.0
  Zn  Zn3  1  0.02984020  0.04979617  0.21120978  1.0
  H  H4  1  0.74008265  0.06646604  0.08522412  1.0
  H  H5  1  0.61851577  0.92962642  0.22772566  1.0
  H  H6  1  0.53425157  0.10292578  0.13241777  1.0
  H  H7  1  0.42067826  0.10194825  0.13440369  1.0
  H  H8  1  0.33505741  0.93102670  0.23249314  1.0
  H  H9  1  0.21672149  0.06645108  0.08603371  1.0
  H  H10  1  0.33067235  0.06852180  0.08393020  1.0
  H  H11  1  0.42975457  0.90462006  0.18196550  1.0
  H  H12  1  0.05877498  0.65238706  0.07264494  1.0
  H  H13  1  0.95998470  0.53869398  0.15713508  1.0
  H  H14  1  0.93703195  0.39401205  0.01640029  1.0
  H  H15  1  0.01803323  0.41124787  0.00546256  1.0
  H  H16  1  0.00019976  0.49248803  0.93484158  1.0
  H  H17  1  0.91765188  0.48913255  0.94451193  1.0
  H  H18  1  0.95659205  0.43066349  0.84893852  1.0
  H  H19  1  0.91794662  0.37966520  0.90158584  1.0
  H  H20  1  0.04901669  0.39629438  0.88806181  1.0
  H  H21  1  0.02790023  0.22299391  0.07246019  1.0
  H  H22  1  0.03645552  0.91352394  0.80504685  1.0
  H  H23  1  0.88123066  0.03163190  0.71551028  1.0
  H  H24  1  0.88150198  0.03532174  0.60387745  1.0
  H  H25  1  0.87781225  0.97892065  0.39728814  1.0
  H  H26  1  0.06762766  0.95626727  0.60210340  1.0
  H  H27  1  0.06985246  0.95877533  0.71362932  1.0
  C  C28  1  0.74513659  0.99653162  0.15847459  1.0
  C  C29  1  0.71416071  0.03628854  0.11690201  1.0
  C  C30  1  0.64902543  0.03790737  0.11566929  1.0
  C  C31  1  0.61238480  0.00084245  0.15560199  1.0
  C  C32  1  0.64442383  0.96007690  0.19620297  1.0
  C  C33  1  0.70961753  0.95831864  0.19749710  1.0
  C  C34  1  0.54361232  0.00398466  0.15586485  1.0
  C  C35  1  0.51047285  0.05896804  0.14301712  1.0
  C  C36  1  0.44526942  0.05811132  0.14414822  1.0
  C  C37  1  0.41272202  0.00256610  0.15786136  1.0
  C  C38  1  0.34371478  0.00017416  0.15820846  1.0
  C  C39  1  0.31074917  0.96083009  0.19924455  1.0
  C  C40  1  0.24546701  0.95927455  0.19928505  1.0
  C  C41  1  0.21061583  0.99683851  0.15921827  1.0
  C  C42  1  0.24250636  0.03635654  0.11808266  1.0
  C  C43  1  0.30797942  0.03764437  0.11748949  1.0
  C  C44  1  0.45012836  0.95029123  0.17096104  1.0
  C  C45  1  0.97770440  0.76124540  0.15843569  1.0
  C  C46  1  0.93472809  0.72049381  0.18546384  1.0
  C  C47  1  0.93664347  0.65588326  0.17374070  1.0
  C  C48  1  0.97965288  0.63063586  0.13155716  1.0
  C  C49  1  0.02301815  0.67041438  0.10362137  1.0
  C  C50  1  0.02246639  0.73528803  0.11823632  1.0
  C  C51  1  0.97988885  0.53434479  0.06510804  1.0
  C  C52  1  0.97171591  0.43153753  0.00979951  1.0
  C  C53  1  0.96078623  0.46139672  0.94583441  1.0
  C  C54  1  0.95886593  0.41000910  0.89545889  1.0
  C  C55  1  0.97987379  0.43429829  0.12592892  1.0
  C  C56  1  0.97918641  0.36388514  0.13338309  1.0
  C  C57  1  0.00925872  0.31995914  0.09513616  1.0
  C  C58  1  0.00583886  0.25493779  0.10571089  1.0
  C  C59  1  0.97745189  0.23170580  0.15933121  1.0
  C  C60  1  0.95170212  0.27477953  0.20071383  1.0
  C  C61  1  0.95137749  0.33943966  0.18741067  1.0
  C  C62  1  0.97781973  0.99655056  0.92704598  1.0
  C  C63  1  0.01110893  0.95163127  0.89342175  1.0
  C  C64  1  0.01036790  0.95075037  0.82845085  1.0
  C  C65  1  0.97651681  0.99612164  0.79459604  1.0
  C  C66  1  0.94405219  0.04189671  0.82957969  1.0
  C  C67  1  0.94404905  0.04176679  0.89444245  1.0
  C  C68  1  0.97571462  0.99549741  0.72572064  1.0
  C  C69  1  0.92343448  0.01581907  0.69182283  1.0
  C  C70  1  0.92324007  0.01706794  0.62659868  1.0
  C  C71  1  0.97458408  0.99615387  0.59182534  1.0
  C  C72  1  0.97490532  0.99725402  0.52290996  1.0
  C  C73  1  0.03000031  0.00824424  0.48902527  1.0
  C  C74  1  0.03137214  0.00760946  0.42426086  1.0
  C  C75  1  0.97731185  0.99705888  0.39017056  1.0
  C  C76  1  0.92136977  0.98716169  0.42223083  1.0
  C  C77  1  0.92070850  0.98700702  0.48720497  1.0
  C  C78  1  0.02622430  0.97412155  0.62577194  1.0
  C  C79  1  0.02718100  0.97461737  0.69095398  1.0
  C  C80  1  0.97737560  0.99696913  0.32088363  1.0
  C  C81  1  0.97746914  0.16132158  0.15924951  1.0
  C  C82  1  0.97774104  0.99662407  0.99633328  1.0
  C  C83  1  0.14097663  0.99682550  0.15913095  1.0
  C  C84  1  0.97766038  0.83162955  0.15858178  1.0
  C  C85  1  0.81477515  0.99672209  0.15868324  1.0
  N  N86  1  0.51365470  0.94975342  0.17083722  1.0
  N  N87  1  0.97911249  0.56485897  0.12221074  1.0
  N  N88  1  0.97485685  0.46747832  0.06833551  1.0
  O  O89  1  0.98284901  0.56439784  0.01639173  1.0
  O  O90  1  0.01274417  0.37065623  0.89854243  1.0
  O  O91  1  0.98200012  0.46333082  0.17588352  1.0
  O  O92  1  0.97755822  0.99679704  0.15892473  1.0
  O  O93  1  0.01621872  0.95776457  0.01955124  1.0
  O  O94  1  0.83752746  0.03562226  0.12054436  1.0
  O  O95  1  0.93912377  0.85528254  0.19686692  1.0
  O  O96  1  0.93921157  0.03553274  0.01961580  1.0
  O  O97  1  0.01616874  0.85521437  0.12039504  1.0
  O  O98  1  0.83748895  0.95792158  0.19695188  1.0
  O  O99  1  0.93894535  0.95804699  0.29813632  1.0
  O  O100  1  0.11753976  0.03575366  0.19746655  1.0
  O  O101  1  0.01585566  0.03584314  0.29839512  1.0
  O  O102  1  0.11767513  0.95789002  0.12073568  1.0
  O  O103  1  0.93903386  0.13829788  0.12088505  1.0
  O  O104  1  0.01590566  0.13839256  0.19755135  1.0
  F  F105  1  0.73768439  0.91905675  0.23763163  1.0
  F  F106  1  0.21684512  0.92040709  0.23939308  1.0
  F  F107  1  0.62198313  0.07639013  0.07412759  1.0
  F  F108  1  0.06721421  0.77122112  0.09266793  1.0
  F  F109  1  0.92383875  0.37749118  0.22922772  1.0
  F  F110  1  0.92738351  0.25476962  0.25479147  1.0
  F  F111  1  0.04725208  0.33732737  0.04907896  1.0
  F  F112  1  0.89456646  0.61806751  0.20063525  1.0
  F  F113  1  0.89024579  0.74291914  0.22375893  1.0
  F  F114  1  0.04572037  0.90823656  0.92302373  1.0
  F  F115  1  0.91209966  0.08717410  0.92422639  1.0
  F  F116  1  0.91255475  0.08830342  0.80093268  1.0
  F  F117  1  0.08402831  0.02034041  0.51856432  1.0
  F  F118  1  0.86568611  0.97567504  0.51487795  1.0
  F  F119  1  0.08611241  0.01707768  0.39529874  1.0
  Zn  Zn0  1  0.28002409  0.19381593  0.35677177  1.0
  Zn  Zn1  1  0.17520928  0.29966698  0.35685906  1.0
  Zn  Zn2  1  0.17515771  0.19390839  0.46085783  1.0
  Zn  Zn3  1  0.27984020  0.29979617  0.46120978  1.0
  H  H4  1  0.99008265  0.31646604  0.33522412  1.0
  H  H5  1  0.86851577  0.17962642  0.47772566  1.0
  H  H6  1  0.78425157  0.35292578  0.38241777  1.0
  H  H7  1  0.67067826  0.35194825  0.38440369  1.0
  H  H8  1  0.58505741  0.18102670  0.48249314  1.0
  H  H9  1  0.46672149  0.31645108  0.33603371  1.0
  H  H10  1  0.58067235  0.31852180  0.33393020  1.0
  H  H11  1  0.67975457  0.15462006  0.43196550  1.0
  H  H12  1  0.30877498  0.90238706  0.32264494  1.0
  H  H13  1  0.20998470  0.78869398  0.40713508  1.0
  H  H14  1  0.18703195  0.64401205  0.26640029  1.0
  H  H15  1  0.26803323  0.66124787  0.25546256  1.0
  H  H16  1  0.25019976  0.74248803  0.18484158  1.0
  H  H17  1  0.16765188  0.73913255  0.19451193  1.0
  H  H18  1  0.20659205  0.68066349  0.09893852  1.0
  H  H19  1  0.16794662  0.62966520  0.15158584  1.0
  H  H20  1  0.29901669  0.64629438  0.13806181  1.0
  H  H21  1  0.27790023  0.47299391  0.32246019  1.0
  H  H22  1  0.28645552  0.16352394  0.05504685  1.0
  H  H23  1  0.13123066  0.28163190  0.96551028  1.0
  H  H24  1  0.13150198  0.28532174  0.85387745  1.0
  H  H25  1  0.12781225  0.22892065  0.64728814  1.0
  H  H26  1  0.31762766  0.20626727  0.85210340  1.0
  H  H27  1  0.31985246  0.20877533  0.96362932  1.0
  C  C28  1  0.99513659  0.24653162  0.40847459  1.0
  C  C29  1  0.96416071  0.28628854  0.36690201  1.0
  C  C30  1  0.89902543  0.28790737  0.36566929  1.0
  C  C31  1  0.86238480  0.25084245  0.40560199  1.0
  C  C32  1  0.89442383  0.21007690  0.44620297  1.0
  C  C33  1  0.95961753  0.20831864  0.44749710  1.0
  C  C34  1  0.79361232  0.25398466  0.40586485  1.0
  C  C35  1  0.76047285  0.30896804  0.39301712  1.0
  C  C36  1  0.69526942  0.30811132  0.39414822  1.0
  C  C37  1  0.66272202  0.25256610  0.40786136  1.0
  C  C38  1  0.59371478  0.25017416  0.40820846  1.0
  C  C39  1  0.56074917  0.21083009  0.44924455  1.0
  C  C40  1  0.49546701  0.20927455  0.44928505  1.0
  C  C41  1  0.46061583  0.24683851  0.40921827  1.0
  C  C42  1  0.49250636  0.28635654  0.36808266  1.0
  C  C43  1  0.55797942  0.28764437  0.36748949  1.0
  C  C44  1  0.70012836  0.20029123  0.42096104  1.0
  C  C45  1  0.22770440  0.01124540  0.40843569  1.0
  C  C46  1  0.18472809  0.97049381  0.43546384  1.0
  C  C47  1  0.18664347  0.90588326  0.42374070  1.0
  C  C48  1  0.22965288  0.88063586  0.38155716  1.0
  C  C49  1  0.27301815  0.92041438  0.35362137  1.0
  C  C50  1  0.27246639  0.98528803  0.36823632  1.0
  C  C51  1  0.22988885  0.78434479  0.31510804  1.0
  C  C52  1  0.22171591  0.68153753  0.25979951  1.0
  C  C53  1  0.21078623  0.71139672  0.19583441  1.0
  C  C54  1  0.20886593  0.66000910  0.14545889  1.0
  C  C55  1  0.22987379  0.68429829  0.37592892  1.0
  C  C56  1  0.22918641  0.61388514  0.38338309  1.0
  C  C57  1  0.25925872  0.56995914  0.34513616  1.0
  C  C58  1  0.25583886  0.50493779  0.35571089  1.0
  C  C59  1  0.22745189  0.48170580  0.40933121  1.0
  C  C60  1  0.20170212  0.52477953  0.45071383  1.0
  C  C61  1  0.20137749  0.58943966  0.43741067  1.0
  C  C62  1  0.22781973  0.24655056  0.17704598  1.0
  C  C63  1  0.26110893  0.20163127  0.14342175  1.0
  C  C64  1  0.26036790  0.20075037  0.07845085  1.0
  C  C65  1  0.22651681  0.24612164  0.04459604  1.0
  C  C66  1  0.19405219  0.29189671  0.07957969  1.0
  C  C67  1  0.19404905  0.29176679  0.14444245  1.0
  C  C68  1  0.22571462  0.24549741  0.97572064  1.0
  C  C69  1  0.17343448  0.26581907  0.94182283  1.0
  C  C70  1  0.17324007  0.26706794  0.87659868  1.0
  C  C71  1  0.22458408  0.24615387  0.84182534  1.0
  C  C72  1  0.22490532  0.24725402  0.77290996  1.0
  C  C73  1  0.28000031  0.25824424  0.73902527  1.0
  C  C74  1  0.28137214  0.25760946  0.67426086  1.0
  C  C75  1  0.22731185  0.24705888  0.64017056  1.0
  C  C76  1  0.17136977  0.23716169  0.67223083  1.0
  C  C77  1  0.17070850  0.23700702  0.73720497  1.0
  C  C78  1  0.27622430  0.22412155  0.87577194  1.0
  C  C79  1  0.27718100  0.22461737  0.94095398  1.0
  C  C80  1  0.22737560  0.24696913  0.57088363  1.0
  C  C81  1  0.22746914  0.41132158  0.40924951  1.0
  C  C82  1  0.22774104  0.24662407  0.24633328  1.0
  C  C83  1  0.39097663  0.24682550  0.40913095  1.0
  C  C84  1  0.22766038  0.08162955  0.40858178  1.0
  C  C85  1  0.06477515  0.24672209  0.40868324  1.0
  N  N86  1  0.76365470  0.19975342  0.42083722  1.0
  N  N87  1  0.22911249  0.81485897  0.37221074  1.0
  N  N88  1  0.22485685  0.71747832  0.31833551  1.0
  O  O89  1  0.23284901  0.81439784  0.26639173  1.0
  O  O90  1  0.26274417  0.62065623  0.14854243  1.0
  O  O91  1  0.23200012  0.71333082  0.42588352  1.0
  O  O92  1  0.22755822  0.24679704  0.40892473  1.0
  O  O93  1  0.26621872  0.20776457  0.26955124  1.0
  O  O94  1  0.08752746  0.28562226  0.37054436  1.0
  O  O95  1  0.18912377  0.10528254  0.44686692  1.0
  O  O96  1  0.18921157  0.28553274  0.26961580  1.0
  O  O97  1  0.26616874  0.10521437  0.37039504  1.0
  O  O98  1  0.08748895  0.20792158  0.44695188  1.0
  O  O99  1  0.18894535  0.20804699  0.54813632  1.0
  O  O100  1  0.36753976  0.28575366  0.44746655  1.0
  O  O101  1  0.26585566  0.28584314  0.54839512  1.0
  O  O102  1  0.36767513  0.20789002  0.37073568  1.0
  O  O103  1  0.18903386  0.38829788  0.37088505  1.0
  O  O104  1  0.26590566  0.38839256  0.44755135  1.0
  F  F105  1  0.98768439  0.16905675  0.48763163  1.0
  F  F106  1  0.46684512  0.17040709  0.48939308  1.0
  F  F107  1  0.87198313  0.32639013  0.32412759  1.0
  F  F108  1  0.31721421  0.02122112  0.34266793  1.0
  F  F109  1  0.17383875  0.62749118  0.47922772  1.0
  F  F110  1  0.17738351  0.50476962  0.50479147  1.0
  F  F111  1  0.29725208  0.58732737  0.29907896  1.0
  F  F112  1  0.14456646  0.86806751  0.45063525  1.0
  F  F113  1  0.14024579  0.99291914  0.47375893  1.0
  F  F114  1  0.29572037  0.15823656  0.17302373  1.0
  F  F115  1  0.16209966  0.33717410  0.17422639  1.0
  F  F116  1  0.16255475  0.33830342  0.05093268  1.0
  F  F117  1  0.33402831  0.27034041  0.76856432  1.0
  F  F118  1  0.11568611  0.22567504  0.76487795  1.0
  F  F119  1  0.33611241  0.26707768  0.64529874  1.0
  Zn  Zn0  1  0.53002409  0.44381593  0.60677177  1.0
  Zn  Zn1  1  0.42520928  0.54966698  0.60685906  1.0
  Zn  Zn2  1  0.42515771  0.44390839  0.71085783  1.0
  Zn  Zn3  1  0.52984020  0.54979617  0.71120978  1.0
  H  H4  1  0.24008265  0.56646604  0.58522412  1.0
  H  H5  1  0.11851577  0.42962642  0.72772566  1.0
  H  H6  1  0.03425157  0.60292578  0.63241777  1.0
  H  H7  1  0.92067826  0.60194825  0.63440369  1.0
  H  H8  1  0.83505741  0.43102670  0.73249314  1.0
  H  H9  1  0.71672149  0.56645108  0.58603371  1.0
  H  H10  1  0.83067235  0.56852180  0.58393020  1.0
  H  H11  1  0.92975457  0.40462006  0.68196550  1.0
  H  H12  1  0.55877498  0.15238706  0.57264494  1.0
  H  H13  1  0.45998470  0.03869398  0.65713508  1.0
  H  H14  1  0.43703195  0.89401205  0.51640029  1.0
  H  H15  1  0.51803323  0.91124787  0.50546256  1.0
  H  H16  1  0.50019976  0.99248803  0.43484158  1.0
  H  H17  1  0.41765188  0.98913255  0.44451193  1.0
  H  H18  1  0.45659205  0.93066349  0.34893852  1.0
  H  H19  1  0.41794662  0.87966520  0.40158584  1.0
  H  H20  1  0.54901669  0.89629438  0.38806181  1.0
  H  H21  1  0.52790023  0.72299391  0.57246019  1.0
  H  H22  1  0.53645552  0.41352394  0.30504685  1.0
  H  H23  1  0.38123066  0.53163190  0.21551028  1.0
  H  H24  1  0.38150198  0.53532174  0.10387745  1.0
  H  H25  1  0.37781225  0.47892065  0.89728814  1.0
  H  H26  1  0.56762766  0.45626727  0.10210340  1.0
  H  H27  1  0.56985246  0.45877533  0.21362932  1.0
  C  C28  1  0.24513659  0.49653162  0.65847459  1.0
  C  C29  1  0.21416071  0.53628854  0.61690201  1.0
  C  C30  1  0.14902543  0.53790737  0.61566929  1.0
  C  C31  1  0.11238480  0.50084245  0.65560199  1.0
  C  C32  1  0.14442383  0.46007690  0.69620297  1.0
  C  C33  1  0.20961753  0.45831864  0.69749710  1.0
  C  C34  1  0.04361232  0.50398466  0.65586485  1.0
  C  C35  1  0.01047285  0.55896804  0.64301712  1.0
  C  C36  1  0.94526942  0.55811132  0.64414822  1.0
  C  C37  1  0.91272202  0.50256610  0.65786136  1.0
  C  C38  1  0.84371478  0.50017416  0.65820846  1.0
  C  C39  1  0.81074917  0.46083009  0.69924455  1.0
  C  C40  1  0.74546701  0.45927455  0.69928505  1.0
  C  C41  1  0.71061583  0.49683851  0.65921827  1.0
  C  C42  1  0.74250636  0.53635654  0.61808266  1.0
  C  C43  1  0.80797942  0.53764437  0.61748949  1.0
  C  C44  1  0.95012836  0.45029123  0.67096104  1.0
  C  C45  1  0.47770440  0.26124540  0.65843569  1.0
  C  C46  1  0.43472809  0.22049381  0.68546384  1.0
  C  C47  1  0.43664347  0.15588326  0.67374070  1.0
  C  C48  1  0.47965288  0.13063586  0.63155716  1.0
  C  C49  1  0.52301815  0.17041438  0.60362137  1.0
  C  C50  1  0.52246639  0.23528803  0.61823632  1.0
  C  C51  1  0.47988885  0.03434479  0.56510804  1.0
  C  C52  1  0.47171591  0.93153753  0.50979951  1.0
  C  C53  1  0.46078623  0.96139672  0.44583441  1.0
  C  C54  1  0.45886593  0.91000910  0.39545889  1.0
  C  C55  1  0.47987379  0.93429829  0.62592892  1.0
  C  C56  1  0.47918641  0.86388514  0.63338309  1.0
  C  C57  1  0.50925872  0.81995914  0.59513616  1.0
  C  C58  1  0.50583886  0.75493779  0.60571089  1.0
  C  C59  1  0.47745189  0.73170580  0.65933121  1.0
  C  C60  1  0.45170212  0.77477953  0.70071383  1.0
  C  C61  1  0.45137749  0.83943966  0.68741067  1.0
  C  C62  1  0.47781973  0.49655056  0.42704598  1.0
  C  C63  1  0.51110893  0.45163127  0.39342175  1.0
  C  C64  1  0.51036790  0.45075037  0.32845085  1.0
  C  C65  1  0.47651681  0.49612164  0.29459604  1.0
  C  C66  1  0.44405219  0.54189671  0.32957969  1.0
  C  C67  1  0.44404905  0.54176679  0.39444245  1.0
  C  C68  1  0.47571462  0.49549741  0.22572064  1.0
  C  C69  1  0.42343448  0.51581907  0.19182283  1.0
  C  C70  1  0.42324007  0.51706794  0.12659868  1.0
  C  C71  1  0.47458408  0.49615387  0.09182534  1.0
  C  C72  1  0.47490532  0.49725402  0.02290996  1.0
  C  C73  1  0.53000031  0.50824424  0.98902527  1.0
  C  C74  1  0.53137214  0.50760946  0.92426086  1.0
  C  C75  1  0.47731185  0.49705888  0.89017056  1.0
  C  C76  1  0.42136977  0.48716169  0.92223083  1.0
  C  C77  1  0.42070850  0.48700702  0.98720497  1.0
  C  C78  1  0.52622430  0.47412155  0.12577194  1.0
  C  C79  1  0.52718100  0.47461737  0.19095398  1.0
  C  C80  1  0.47737560  0.49696913  0.82088363  1.0
  C  C81  1  0.47746914  0.66132158  0.65924951  1.0
  C  C82  1  0.47774104  0.49662407  0.49633328  1.0
  C  C83  1  0.64097663  0.49682550  0.65913095  1.0
  C  C84  1  0.47766038  0.33162955  0.65858178  1.0
  C  C85  1  0.31477515  0.49672209  0.65868324  1.0
  N  N86  1  0.01365470  0.44975342  0.67083722  1.0
  N  N87  1  0.47911249  0.06485897  0.62221074  1.0
  N  N88  1  0.47485685  0.96747832  0.56833551  1.0
  O  O89  1  0.48284901  0.06439784  0.51639173  1.0
  O  O90  1  0.51274417  0.87065623  0.39854243  1.0
  O  O91  1  0.48200012  0.96333082  0.67588352  1.0
  O  O92  1  0.47755822  0.49679704  0.65892473  1.0
  O  O93  1  0.51621872  0.45776457  0.51955124  1.0
  O  O94  1  0.33752746  0.53562226  0.62054436  1.0
  O  O95  1  0.43912377  0.35528254  0.69686692  1.0
  O  O96  1  0.43921157  0.53553274  0.51961580  1.0
  O  O97  1  0.51616874  0.35521437  0.62039504  1.0
  O  O98  1  0.33748895  0.45792158  0.69695188  1.0
  O  O99  1  0.43894535  0.45804699  0.79813632  1.0
  O  O100  1  0.61753976  0.53575366  0.69746655  1.0
  O  O101  1  0.51585566  0.53584314  0.79839512  1.0
  O  O102  1  0.61767513  0.45789002  0.62073568  1.0
  O  O103  1  0.43903386  0.63829788  0.62088505  1.0
  O  O104  1  0.51590566  0.63839256  0.69755135  1.0
  F  F105  1  0.23768439  0.41905675  0.73763163  1.0
  F  F106  1  0.71684512  0.42040709  0.73939308  1.0
  F  F107  1  0.12198313  0.57639013  0.57412759  1.0
  F  F108  1  0.56721421  0.27122112  0.59266793  1.0
  F  F109  1  0.42383875  0.87749118  0.72922772  1.0
  F  F110  1  0.42738351  0.75476962  0.75479147  1.0
  F  F111  1  0.54725208  0.83732737  0.54907896  1.0
  F  F112  1  0.39456646  0.11806751  0.70063525  1.0
  F  F113  1  0.39024579  0.24291914  0.72375893  1.0
  F  F114  1  0.54572037  0.40823656  0.42302373  1.0
  F  F115  1  0.41209966  0.58717410  0.42422639  1.0
  F  F116  1  0.41255475  0.58830342  0.30093268  1.0
  F  F117  1  0.58402831  0.52034041  0.01856432  1.0
  F  F118  1  0.36568611  0.47567504  0.01487795  1.0
  F  F119  1  0.58611241  0.51707768  0.89529874  1.0
