# generated using pymatgen
data_Zn2H32C59N4Cl3O8F11
_symmetry_space_group_name_H-M   'P 1'
_cell_length_a   18.50330255
_cell_length_b   19.35024366
_cell_length_c   19.49103233
_cell_angle_alpha   84.90156538
_cell_angle_beta   90.11334894
_cell_angle_gamma   89.96548298
_symmetry_Int_Tables_number   1
_chemical_formula_structural   Zn2H32C59N4Cl3O8F11
_chemical_formula_sum   'Zn6 H96 C177 N12 Cl9 O24 F33'
_cell_volume   6951.00899553
_cell_formula_units_Z   3
loop_
 _symmetry_equiv_pos_site_id
 _symmetry_equiv_pos_as_xyz
  1  'x, y, z'
loop_
 _atom_site_type_symbol
 _atom_site_label
 _atom_site_symmetry_multiplicity
 _atom_site_fract_x
 _atom_site_fract_y
 _atom_site_fract_z
 _atom_site_occupancy
  Zn  Zn0  1  0.78641390  0.76241958  0.23928572  1.0
  Zn  Zn1  1  0.94478521  0.76237479  0.23921215  1.0
  Zn  Zn2  1  0.11941390  0.09541958  0.57228572  1.0
  Zn  Zn3  1  0.27778521  0.09537479  0.57221215  1.0
  Zn  Zn4  1  0.45241390  0.42841958  0.90528572  1.0
  Zn  Zn5  1  0.61078521  0.42837479  0.90521215  1.0
  H  H6  1  0.66928198  0.86857933  0.24270031  1.0
  H  H7  1  0.43066430  0.65875904  0.29529721  1.0
  H  H8  1  0.30094915  0.65700441  0.29174613  1.0
  H  H9  1  0.06069278  0.82189948  0.14602028  1.0
  H  H10  1  0.30062105  0.86232908  0.18496933  1.0
  H  H11  1  0.43013255  0.86111284  0.18230552  1.0
  H  H12  1  0.82678931  0.06127033  0.40215748  1.0
  H  H13  1  0.85213072  0.14503844  0.37128302  1.0
  H  H14  1  0.76162295  0.11395689  0.35786035  1.0
  H  H15  1  0.81763469  0.97141183  0.33811082  1.0
  H  H16  1  0.93200947  0.91227105  0.13157266  1.0
  H  H17  1  0.88295879  0.97223180  0.07587528  1.0
  H  H18  1  0.97314793  0.98996617  0.10338308  1.0
  H  H19  1  0.97104671  0.20901161  0.20243665  1.0
  H  H20  1  0.90798895  0.22798116  0.13309239  1.0
  H  H21  1  0.94853380  0.41461500  0.31522977  1.0
  H  H22  1  0.94416252  0.54080705  0.32269816  1.0
  H  H23  1  0.78466579  0.55972916  0.15957124  1.0
  H  H24  1  0.78735006  0.43256008  0.15459826  1.0
  H  H25  1  0.77440201  0.32200160  0.29776207  1.0
  H  H26  1  0.76575092  0.19952501  0.28573638  1.0
  H  H27  1  0.97994864  0.32181541  0.10661307  1.0
  H  H28  1  0.95332249  0.39591125  0.13710683  1.0
  H  H29  1  0.90969486  0.08134929  0.06209009  1.0
  H  H30  1  0.86278215  0.15151968  0.08681534  1.0
  H  H31  1  0.95871107  0.13981349  0.10623559  1.0
  H  H32  1  0.74338256  0.74479935  0.57027246  1.0
  H  H33  1  0.74980380  0.76569894  0.44517843  1.0
  H  H34  1  0.98248257  0.75634333  0.45542113  1.0
  H  H35  1  0.74514943  0.88459230  0.68823149  1.0
  H  H36  1  0.78549910  0.86445262  0.61273312  1.0
  H  H37  1  0.70798351  0.81607484  0.64488934  1.0
  H  H38  1  0.00228198  0.20157933  0.57570031  1.0
  H  H39  1  0.76366430  0.99175904  0.62829721  1.0
  H  H40  1  0.63394915  0.99000441  0.62474613  1.0
  H  H41  1  0.39369278  0.15489948  0.47902028  1.0
  H  H42  1  0.63362105  0.19532908  0.51796933  1.0
  H  H43  1  0.76313255  0.19411284  0.51530552  1.0
  H  H44  1  0.15978931  0.39427033  0.73515748  1.0
  H  H45  1  0.18513072  0.47803844  0.70428302  1.0
  H  H46  1  0.09462295  0.44695689  0.69086035  1.0
  H  H47  1  0.15063469  0.30441183  0.67111082  1.0
  H  H48  1  0.26500947  0.24527105  0.46457266  1.0
  H  H49  1  0.21595879  0.30523180  0.40887528  1.0
  H  H50  1  0.30614793  0.32296617  0.43638308  1.0
  H  H51  1  0.30404671  0.54201161  0.53543665  1.0
  H  H52  1  0.24098895  0.56098116  0.46609239  1.0
  H  H53  1  0.28153380  0.74761500  0.64822977  1.0
  H  H54  1  0.27716252  0.87380705  0.65569816  1.0
  H  H55  1  0.11766579  0.89272916  0.49257124  1.0
  H  H56  1  0.12035006  0.76556008  0.48759826  1.0
  H  H57  1  0.10740201  0.65500160  0.63076207  1.0
  H  H58  1  0.09875092  0.53252501  0.61873638  1.0
  H  H59  1  0.31294864  0.65481541  0.43961307  1.0
  H  H60  1  0.28632249  0.72891125  0.47010683  1.0
  H  H61  1  0.24269486  0.41434929  0.39509009  1.0
  H  H62  1  0.19578215  0.48451968  0.41981534  1.0
  H  H63  1  0.29171107  0.47281349  0.43923559  1.0
  H  H64  1  0.07638256  0.07779935  0.90327246  1.0
  H  H65  1  0.08280380  0.09869894  0.77817843  1.0
  H  H66  1  0.31548257  0.08934333  0.78842113  1.0
  H  H67  1  0.07814943  0.21759230  0.02123149  1.0
  H  H68  1  0.11849910  0.19745262  0.94573312  1.0
  H  H69  1  0.04098351  0.14907484  0.97788934  1.0
  H  H70  1  0.33528198  0.53457933  0.90870031  1.0
  H  H71  1  0.09666430  0.32475904  0.96129721  1.0
  H  H72  1  0.96694915  0.32300441  0.95774613  1.0
  H  H73  1  0.72669278  0.48789948  0.81202028  1.0
  H  H74  1  0.96662105  0.52832908  0.85096933  1.0
  H  H75  1  0.09613255  0.52711284  0.84830552  1.0
  H  H76  1  0.49278931  0.72727033  0.06815748  1.0
  H  H77  1  0.51813072  0.81103844  0.03728302  1.0
  H  H78  1  0.42762295  0.77995689  0.02386035  1.0
  H  H79  1  0.48363469  0.63741183  0.00411082  1.0
  H  H80  1  0.59800947  0.57827105  0.79757266  1.0
  H  H81  1  0.54895879  0.63823180  0.74187528  1.0
  H  H82  1  0.63914793  0.65596617  0.76938308  1.0
  H  H83  1  0.63704671  0.87501161  0.86843665  1.0
  H  H84  1  0.57398895  0.89398116  0.79909239  1.0
  H  H85  1  0.61453380  0.08061500  0.98122977  1.0
  H  H86  1  0.61016252  0.20680705  0.98869816  1.0
  H  H87  1  0.45066579  0.22572916  0.82557124  1.0
  H  H88  1  0.45335006  0.09856008  0.82059826  1.0
  H  H89  1  0.44040201  0.98800160  0.96376207  1.0
  H  H90  1  0.43175092  0.86552501  0.95173638  1.0
  H  H91  1  0.64594864  0.98781541  0.77261307  1.0
  H  H92  1  0.61932249  0.06191125  0.80310683  1.0
  H  H93  1  0.57569486  0.74734929  0.72809009  1.0
  H  H94  1  0.52878215  0.81751968  0.75281534  1.0
  H  H95  1  0.62471107  0.80581349  0.77223559  1.0
  H  H96  1  0.40938256  0.41079935  0.23627246  1.0
  H  H97  1  0.41580380  0.43169894  0.11117843  1.0
  H  H98  1  0.64848257  0.42234333  0.12142113  1.0
  H  H99  1  0.41114943  0.55059230  0.35423149  1.0
  H  H100  1  0.45149910  0.53045262  0.27873312  1.0
  H  H101  1  0.37398351  0.48207484  0.31088934  1.0
  C  C102  1  0.56364217  0.82214722  0.24196862  1.0
  C  C103  1  0.52379650  0.76066763  0.23944925  1.0
  C  C104  1  0.56503107  0.69996904  0.23712167  1.0
  C  C105  1  0.64016629  0.70317044  0.23746596  1.0
  C  C106  1  0.63873558  0.82078911  0.24140242  1.0
  C  C107  1  0.44359177  0.76003715  0.23897804  1.0
  C  C108  1  0.40366762  0.70387916  0.26947003  1.0
  C  C109  1  0.32773062  0.70328034  0.26826685  1.0
  C  C110  1  0.28759015  0.75970328  0.23837873  1.0
  C  C111  1  0.20740092  0.76009568  0.23849821  1.0
  C  C112  1  0.16684041  0.79445217  0.18481122  1.0
  C  C113  1  0.09176702  0.79462698  0.18734074  1.0
  C  C114  1  0.09173790  0.72879187  0.29057640  1.0
  C  C115  1  0.16691758  0.72664073  0.29251470  1.0
  C  C116  1  0.32752299  0.81612845  0.20854399  1.0
  C  C117  1  0.40341452  0.81590159  0.20794390  1.0
  C  C118  1  0.81920213  0.10094969  0.35889629  1.0
  C  C119  1  0.84187402  0.07401000  0.29163446  1.0
  C  C120  1  0.84020556  0.00086211  0.29290294  1.0
  C  C121  1  0.86554832  0.96545680  0.23847075  1.0
  C  C122  1  0.89096378  0.00366796  0.17886369  1.0
  C  C123  1  0.92085443  0.96729820  0.11929413  1.0
  C  C124  1  0.88680829  0.07833664  0.17360029  1.0
  C  C125  1  0.86331690  0.11578432  0.23077321  1.0
  C  C126  1  0.91763009  0.23010388  0.18792508  1.0
  C  C127  1  0.91832920  0.30909015  0.19273862  1.0
  C  C128  1  0.86933010  0.33923201  0.23216666  1.0
  C  C129  1  0.86863308  0.41526914  0.23430149  1.0
  C  C130  1  0.91306183  0.44648065  0.28089867  1.0
  C  C131  1  0.91128575  0.51828093  0.28422133  1.0
  C  C132  1  0.86565769  0.55933792  0.24002741  1.0
  C  C133  1  0.82117774  0.52821811  0.19330930  1.0
  C  C134  1  0.82255471  0.45636585  0.19059790  1.0
  C  C135  1  0.81440174  0.29656121  0.26798827  1.0
  C  C136  1  0.81083711  0.22822059  0.26232178  1.0
  C  C137  1  0.90570915  0.11503560  0.10392196  1.0
  C  C138  1  0.86507582  0.76395817  0.03759186  1.0
  C  C139  1  0.84982636  0.82222686  0.99306031  1.0
  C  C140  1  0.85018346  0.81838026  0.92157579  1.0
  C  C141  1  0.86050498  0.75567072  0.89150005  1.0
  C  C142  1  0.87278884  0.69736158  0.93838667  1.0
  C  C143  1  0.87795071  0.70193359  0.00946290  1.0
  C  C144  1  0.85850097  0.75114877  0.81488332  1.0
  C  C145  1  0.80379083  0.78354850  0.77250729  1.0
  C  C146  1  0.80749851  0.78866776  0.69903489  1.0
  C  C147  1  0.85645695  0.74598613  0.66523596  1.0
  C  C148  1  0.85957743  0.74658837  0.58788216  1.0
  C  C149  1  0.79668035  0.74834282  0.54691894  1.0
  C  C150  1  0.79973989  0.75848808  0.47477778  1.0
  C  C151  1  0.86613019  0.76083650  0.44090633  1.0
  C  C152  1  0.92954907  0.75414373  0.47938838  1.0
  C  C153  1  0.92558641  0.74942530  0.55139999  1.0
  C  C154  1  0.90402802  0.70477416  0.70877887  1.0
  C  C155  1  0.91069281  0.71408575  0.77994697  1.0
  C  C156  1  0.75852022  0.84055989  0.65888373  1.0
  C  C157  1  0.86593004  0.75867183  0.36468181  1.0
  C  C158  1  0.86527081  0.76612341  0.11381612  1.0
  C  C159  1  0.86555814  0.88871285  0.23602852  1.0
  C  C160  1  0.86564265  0.63608156  0.24246945  1.0
  C  C161  1  0.89664217  0.15514722  0.57496862  1.0
  C  C162  1  0.85679650  0.09366763  0.57244925  1.0
  C  C163  1  0.89803107  0.03296904  0.57012167  1.0
  C  C164  1  0.97316629  0.03617044  0.57046596  1.0
  C  C165  1  0.97173558  0.15378911  0.57440242  1.0
  C  C166  1  0.77659177  0.09303715  0.57197804  1.0
  C  C167  1  0.73666762  0.03687916  0.60247003  1.0
  C  C168  1  0.66073062  0.03628034  0.60126685  1.0
  C  C169  1  0.62059015  0.09270328  0.57137873  1.0
  C  C170  1  0.54040092  0.09309568  0.57149821  1.0
  C  C171  1  0.49984041  0.12745217  0.51781122  1.0
  C  C172  1  0.42476702  0.12762698  0.52034074  1.0
  C  C173  1  0.42473790  0.06179187  0.62357640  1.0
  C  C174  1  0.49991758  0.05964073  0.62551470  1.0
  C  C175  1  0.66052299  0.14912845  0.54154399  1.0
  C  C176  1  0.73641452  0.14890159  0.54094390  1.0
  C  C177  1  0.15220213  0.43394969  0.69189629  1.0
  C  C178  1  0.17487402  0.40701000  0.62463446  1.0
  C  C179  1  0.17320556  0.33386211  0.62590294  1.0
  C  C180  1  0.19854832  0.29845680  0.57147075  1.0
  C  C181  1  0.22396378  0.33666796  0.51186369  1.0
  C  C182  1  0.25385443  0.30029820  0.45229413  1.0
  C  C183  1  0.21980829  0.41133664  0.50660029  1.0
  C  C184  1  0.19631690  0.44878432  0.56377321  1.0
  C  C185  1  0.25063009  0.56310388  0.52092508  1.0
  C  C186  1  0.25132920  0.64209015  0.52573862  1.0
  C  C187  1  0.20233010  0.67223201  0.56516666  1.0
  C  C188  1  0.20163308  0.74826914  0.56730149  1.0
  C  C189  1  0.24606183  0.77948065  0.61389867  1.0
  C  C190  1  0.24428575  0.85128093  0.61722133  1.0
  C  C191  1  0.19865769  0.89233792  0.57302741  1.0
  C  C192  1  0.15417774  0.86121811  0.52630930  1.0
  C  C193  1  0.15555471  0.78936585  0.52359790  1.0
  C  C194  1  0.14740174  0.62956121  0.60098827  1.0
  C  C195  1  0.14383711  0.56122059  0.59532178  1.0
  C  C196  1  0.23870915  0.44803560  0.43692196  1.0
  C  C197  1  0.19807582  0.09695817  0.37059186  1.0
  C  C198  1  0.18282636  0.15522686  0.32606031  1.0
  C  C199  1  0.18318346  0.15138026  0.25457579  1.0
  C  C200  1  0.19350498  0.08867072  0.22450005  1.0
  C  C201  1  0.20578884  0.03036158  0.27138667  1.0
  C  C202  1  0.21095071  0.03493359  0.34246290  1.0
  C  C203  1  0.19150097  0.08414877  0.14788332  1.0
  C  C204  1  0.13679083  0.11654850  0.10550729  1.0
  C  C205  1  0.14049851  0.12166776  0.03203489  1.0
  C  C206  1  0.18945695  0.07898613  0.99823596  1.0
  C  C207  1  0.19257743  0.07958837  0.92088216  1.0
  C  C208  1  0.12968035  0.08134282  0.87991894  1.0
  C  C209  1  0.13273989  0.09148808  0.80777778  1.0
  C  C210  1  0.19913019  0.09383650  0.77390633  1.0
  C  C211  1  0.26254907  0.08714373  0.81238838  1.0
  C  C212  1  0.25858641  0.08242530  0.88439999  1.0
  C  C213  1  0.23702802  0.03777416  0.04177887  1.0
  C  C214  1  0.24369281  0.04708575  0.11294697  1.0
  C  C215  1  0.09152022  0.17355989  0.99188373  1.0
  C  C216  1  0.19893004  0.09167183  0.69768181  1.0
  C  C217  1  0.19827081  0.09912341  0.44681612  1.0
  C  C218  1  0.19855814  0.22171285  0.56902852  1.0
  C  C219  1  0.19864265  0.96908156  0.57546945  1.0
  C  C220  1  0.22964217  0.48814722  0.90796862  1.0
  C  C221  1  0.18979650  0.42666763  0.90544925  1.0
  C  C222  1  0.23103107  0.36596904  0.90312167  1.0
  C  C223  1  0.30616629  0.36917044  0.90346596  1.0
  C  C224  1  0.30473558  0.48678911  0.90740242  1.0
  C  C225  1  0.10959177  0.42603715  0.90497804  1.0
  C  C226  1  0.06966762  0.36987916  0.93547003  1.0
  C  C227  1  0.99373062  0.36928034  0.93426685  1.0
  C  C228  1  0.95359015  0.42570328  0.90437873  1.0
  C  C229  1  0.87340092  0.42609568  0.90449821  1.0
  C  C230  1  0.83284041  0.46045217  0.85081122  1.0
  C  C231  1  0.75776702  0.46062698  0.85334074  1.0
  C  C232  1  0.75773790  0.39479187  0.95657640  1.0
  C  C233  1  0.83291758  0.39264073  0.95851470  1.0
  C  C234  1  0.99352299  0.48212845  0.87454399  1.0
  C  C235  1  0.06941452  0.48190159  0.87394390  1.0
  C  C236  1  0.48520213  0.76694969  0.02489629  1.0
  C  C237  1  0.50787402  0.74001000  0.95763446  1.0
  C  C238  1  0.50620556  0.66686211  0.95890294  1.0
  C  C239  1  0.53154832  0.63145680  0.90447075  1.0
  C  C240  1  0.55696378  0.66966796  0.84486369  1.0
  C  C241  1  0.58685443  0.63329820  0.78529413  1.0
  C  C242  1  0.55280829  0.74433664  0.83960029  1.0
  C  C243  1  0.52931690  0.78178432  0.89677321  1.0
  C  C244  1  0.58363009  0.89610388  0.85392508  1.0
  C  C245  1  0.58432920  0.97509015  0.85873862  1.0
  C  C246  1  0.53533010  0.00523201  0.89816666  1.0
  C  C247  1  0.53463308  0.08126914  0.90030149  1.0
  C  C248  1  0.57906183  0.11248065  0.94689867  1.0
  C  C249  1  0.57728575  0.18428093  0.95022133  1.0
  C  C250  1  0.53165769  0.22533792  0.90602741  1.0
  C  C251  1  0.48717774  0.19421811  0.85930930  1.0
  C  C252  1  0.48855471  0.12236585  0.85659790  1.0
  C  C253  1  0.48040174  0.96256121  0.93398827  1.0
  C  C254  1  0.47683711  0.89422059  0.92832178  1.0
  C  C255  1  0.57170915  0.78103560  0.76992196  1.0
  C  C256  1  0.53107582  0.42995817  0.70359186  1.0
  C  C257  1  0.51582636  0.48822686  0.65906031  1.0
  C  C258  1  0.51618346  0.48438026  0.58757579  1.0
  C  C259  1  0.52650498  0.42167072  0.55750005  1.0
  C  C260  1  0.53878884  0.36336158  0.60438667  1.0
  C  C261  1  0.54395071  0.36793359  0.67546290  1.0
  C  C262  1  0.52450097  0.41714877  0.48088332  1.0
  C  C263  1  0.46979083  0.44954850  0.43850729  1.0
  C  C264  1  0.47349851  0.45466776  0.36503489  1.0
  C  C265  1  0.52245695  0.41198613  0.33123596  1.0
  C  C266  1  0.52557743  0.41258837  0.25388216  1.0
  C  C267  1  0.46268035  0.41434282  0.21291894  1.0
  C  C268  1  0.46573989  0.42448808  0.14077778  1.0
  C  C269  1  0.53213019  0.42683650  0.10690633  1.0
  C  C270  1  0.59554907  0.42014373  0.14538838  1.0
  C  C271  1  0.59158641  0.41542530  0.21739999  1.0
  C  C272  1  0.57002802  0.37077416  0.37477887  1.0
  C  C273  1  0.57669281  0.38008575  0.44594697  1.0
  C  C274  1  0.42452022  0.50655989  0.32488373  1.0
  C  C275  1  0.53193004  0.42467183  0.03068181  1.0
  C  C276  1  0.53127081  0.43212341  0.77981612  1.0
  C  C277  1  0.53155814  0.55471285  0.90202852  1.0
  C  C278  1  0.53164265  0.30208156  0.90846945  1.0
  N  N279  1  0.67832999  0.76245071  0.23933038  1.0
  N  N280  1  0.05286910  0.76234936  0.23916184  1.0
  N  N281  1  0.86023832  0.19063246  0.22723011  1.0
  N  N282  1  0.96860817  0.34579910  0.14981880  1.0
  N  N283  1  0.01132999  0.09545071  0.57233038  1.0
  N  N284  1  0.38586910  0.09534936  0.57216184  1.0
  N  N285  1  0.19323832  0.52363246  0.56023011  1.0
  N  N286  1  0.30160817  0.67879910  0.48281880  1.0
  N  N287  1  0.34432999  0.42845071  0.90533038  1.0
  N  N288  1  0.71886910  0.42834936  0.90516184  1.0
  N  N289  1  0.52623832  0.85663246  0.89323011  1.0
  N  N290  1  0.63460817  0.01179910  0.81581880  1.0
  Cl  Cl291  1  0.72480866  0.81285102  0.80998989  1.0
  Cl  Cl292  1  0.98989806  0.68421431  0.82218873  1.0
  Cl  Cl293  1  0.94966696  0.63463302  0.67762941  1.0
  Cl  Cl294  1  0.05780866  0.14585102  0.14298989  1.0
  Cl  Cl295  1  0.32289806  0.01721431  0.15518873  1.0
  Cl  Cl296  1  0.28266696  0.96763302  0.01062941  1.0
  Cl  Cl297  1  0.39080866  0.47885102  0.47598989  1.0
  Cl  Cl298  1  0.65589806  0.35021431  0.48818873  1.0
  Cl  Cl299  1  0.61566696  0.30063302  0.34362941  1.0
  O  O300  1  0.92543733  0.76683007  0.13936977  1.0
  O  O301  1  0.92596367  0.75793065  0.33907213  1.0
  O  O302  1  0.92566255  0.86294042  0.23518369  1.0
  O  O303  1  0.92573840  0.66182031  0.24325816  1.0
  O  O304  1  0.80546066  0.86297405  0.23523970  1.0
  O  O305  1  0.80576178  0.75796512  0.33912810  1.0
  O  O306  1  0.80523544  0.76686452  0.13942493  1.0
  O  O307  1  0.80553651  0.66185476  0.24331337  1.0
  O  O308  1  0.25843733  0.09983007  0.47236977  1.0
  O  O309  1  0.25896367  0.09093065  0.67207213  1.0
  O  O310  1  0.25866255  0.19594042  0.56818369  1.0
  O  O311  1  0.25873840  0.99482031  0.57625816  1.0
  O  O312  1  0.13846066  0.19597405  0.56823970  1.0
  O  O313  1  0.13876178  0.09096512  0.67212810  1.0
  O  O314  1  0.13823544  0.09986452  0.47242493  1.0
  O  O315  1  0.13853651  0.99485476  0.57631337  1.0
  O  O316  1  0.59143733  0.43283007  0.80536977  1.0
  O  O317  1  0.59196367  0.42393065  0.00507213  1.0
  O  O318  1  0.59166255  0.52894042  0.90118369  1.0
  O  O319  1  0.59173840  0.32782031  0.90925816  1.0
  O  O320  1  0.47146066  0.52897405  0.90123970  1.0
  O  O321  1  0.47176178  0.42396512  0.00512810  1.0
  O  O322  1  0.47123544  0.43286452  0.80542493  1.0
  O  O323  1  0.47153651  0.32785476  0.90931337  1.0
  F  F324  1  0.53088478  0.88358707  0.24559891  1.0
  F  F325  1  0.67789178  0.64412462  0.23586488  1.0
  F  F326  1  0.53324632  0.63799465  0.23378236  1.0
  F  F327  1  0.19888161  0.82747870  0.12959903  1.0
  F  F328  1  0.19941685  0.69275531  0.34723253  1.0
  F  F329  1  0.05471426  0.69586697  0.34276536  1.0
  F  F330  1  0.83299931  0.88308455  0.01687544  1.0
  F  F331  1  0.83994454  0.87757967  0.88136576  1.0
  F  F332  1  0.87934811  0.63420185  0.91575333  1.0
  F  F333  1  0.89460427  0.64457256  0.05031017  1.0
  F  F334  1  0.98866416  0.75043143  0.58535084  1.0
  F  F335  1  0.86388478  0.21658707  0.57859891  1.0
  F  F336  1  0.01089178  0.97712462  0.56886488  1.0
  F  F337  1  0.86624632  0.97099465  0.56678236  1.0
  F  F338  1  0.53188161  0.16047870  0.46259903  1.0
  F  F339  1  0.53241685  0.02575531  0.68023253  1.0
  F  F340  1  0.38771426  0.02886697  0.67576536  1.0
  F  F341  1  0.16599931  0.21608455  0.34987544  1.0
  F  F342  1  0.17294454  0.21057967  0.21436576  1.0
  F  F343  1  0.21234811  0.96720185  0.24875333  1.0
  F  F344  1  0.22760427  0.97757256  0.38331017  1.0
  F  F345  1  0.32166416  0.08343143  0.91835084  1.0
  F  F346  1  0.19688478  0.54958707  0.91159891  1.0
  F  F347  1  0.34389178  0.31012462  0.90186488  1.0
  F  F348  1  0.19924632  0.30399465  0.89978236  1.0
  F  F349  1  0.86488161  0.49347870  0.79559903  1.0
  F  F350  1  0.86541685  0.35875531  0.01323253  1.0
  F  F351  1  0.72071426  0.36186697  0.00876536  1.0
  F  F352  1  0.49899931  0.54908455  0.68287544  1.0
  F  F353  1  0.50594454  0.54357967  0.54736576  1.0
  F  F354  1  0.54534811  0.30020185  0.58175333  1.0
  F  F355  1  0.56060427  0.31057256  0.71631017  1.0
  F  F356  1  0.65466416  0.41643143  0.25135084  1.0
