# generated using pymatgen
data_Zn4H26C59N3Cl(O7F6)2
_symmetry_space_group_name_H-M   'P 1'
_cell_length_a   19.28416876
_cell_length_b   21.46677271
_cell_length_c   21.54772288
_cell_angle_alpha   90.73575811
_cell_angle_beta   89.49165970
_cell_angle_gamma   88.45781733
_symmetry_Int_Tables_number   1
_chemical_formula_structural   Zn4H26C59N3Cl(O7F6)2
_chemical_formula_sum   'Zn4 H26 C59 N3 Cl1 O14 F12'
_cell_volume   8915.74110554
_cell_formula_units_Z   1
loop_
 _symmetry_equiv_pos_site_id
 _symmetry_equiv_pos_as_xyz
  1  'x, y, z'
loop_
 _atom_site_type_symbol
 _atom_site_label
 _atom_site_symmetry_multiplicity
 _atom_site_fract_x
 _atom_site_fract_y
 _atom_site_fract_z
 _atom_site_occupancy
  Zn  Zn0  1  0.76361407  0.69842693  0.85669352  1.0
  Zn  Zn1  1  0.64453837  0.80314552  0.85888137  1.0
  Zn  Zn2  1  0.64747232  0.69887893  0.96171710  1.0
  Zn  Zn3  1  0.76086059  0.80305908  0.96188217  1.0
  H  H4  1  0.30291728  0.84704286  0.90411562  1.0
  H  H5  1  0.31828643  0.64574409  0.90131423  1.0
  H  H6  1  0.20390256  0.73883075  0.95180206  1.0
  H  H7  1  0.09660161  0.64640496  0.87765960  1.0
  H  H8  1  0.19412698  0.85417315  0.79383249  1.0
  H  H9  1  0.29788815  0.78895585  0.63770021  1.0
  H  H10  1  0.28924427  0.67846106  0.67030819  1.0
  H  H11  1  0.63138759  0.38034953  0.88614210  1.0
  H  H12  1  0.84987800  0.41689249  0.90547701  1.0
  H  H13  1  0.66432149  0.29620946  0.93120997  1.0
  H  H14  1  0.62378365  0.20076767  0.94549459  1.0
  H  H15  1  0.58076265  0.09478548  0.96171362  1.0
  H  H16  1  0.79855394  0.00085890  0.87207257  1.0
  H  H17  1  0.78397706  0.11507665  0.87907636  1.0
  H  H18  1  0.81454439  0.73244468  0.66941093  1.0
  H  H19  1  0.59417575  0.77405778  0.66944028  1.0
  H  H20  1  0.78178804  0.63879688  0.51212689  1.0
  H  H21  1  0.84523038  0.66183323  0.45680718  1.0
  H  H22  1  0.78194703  0.60611934  0.43770443  1.0
  H  H23  1  0.77724631  0.67487657  0.34757552  1.0
  H  H24  1  0.68375482  0.84801462  0.26510038  1.0
  H  H25  1  0.72831694  0.65228033  0.14564339  1.0
  H  H26  1  0.62589930  0.81697187  0.47107033  1.0
  H  H27  1  0.58145971  0.81866241  0.30752219  1.0
  H  H28  1  0.61071862  0.87617801  0.36088376  1.0
  H  H29  1  0.54747211  0.82143906  0.38254721  1.0
  C  C30  1  0.44622589  0.75125339  0.91187957  1.0
  C  C31  1  0.40519954  0.80551708  0.90903133  1.0
  C  C32  1  0.33296216  0.80344739  0.90469285  1.0
  C  C33  1  0.30040822  0.74600357  0.90296267  1.0
  C  C34  1  0.34142285  0.69133848  0.90346727  1.0
  C  C35  1  0.41353510  0.69426634  0.90826138  1.0
  C  C36  1  0.22419368  0.74295992  0.90467803  1.0
  C  C37  1  0.18013807  0.74616512  0.85623190  1.0
  C  C38  1  0.10491202  0.74686109  0.87185939  1.0
  C  C39  1  0.06773641  0.80336646  0.87923616  1.0
  C  C40  1  0.99782080  0.80514391  0.89660141  1.0
  C  C41  1  0.96272888  0.75027940  0.90754248  1.0
  C  C42  1  0.99983984  0.69388072  0.89997083  1.0
  C  C43  1  0.07000360  0.69157968  0.88241214  1.0
  C  C44  1  0.20810864  0.75366092  0.79263064  1.0
  C  C45  1  0.21391995  0.81317093  0.76856736  1.0
  C  C46  1  0.27182124  0.77709340  0.68071152  1.0
  C  C47  1  0.26718627  0.71591411  0.69908648  1.0
  C  C48  1  0.23433521  0.70433236  0.75549091  1.0
  C  C49  1  0.71044770  0.51848562  0.90717574  1.0
  C  C50  1  0.65860401  0.47509972  0.89907767  1.0
  C  C51  1  0.67421611  0.41126555  0.89412479  1.0
  C  C52  1  0.74259368  0.38916661  0.89746577  1.0
  C  C53  1  0.79553585  0.43219687  0.90399925  1.0
  C  C54  1  0.77894217  0.49597861  0.90884114  1.0
  C  C55  1  0.76010081  0.32115935  0.89136246  1.0
  C  C56  1  0.67290224  0.18195535  0.92515597  1.0
  C  C57  1  0.68150172  0.11318244  0.92084484  1.0
  C  C58  1  0.62863906  0.07528066  0.94184727  1.0
  C  C59  1  0.63737368  0.01051176  0.93719069  1.0
  C  C60  1  0.69785672  0.98263553  0.91232294  1.0
  C  C61  1  0.75060896  0.02113535  0.89159671  1.0
  C  C62  1  0.74239922  0.08601567  0.89568953  1.0
  C  C63  1  0.70392053  0.75047121  0.67837370  1.0
  C  C64  1  0.76563568  0.73977271  0.64536451  1.0
  C  C65  1  0.76549325  0.73930564  0.58058489  1.0
  C  C66  1  0.70437436  0.74572212  0.54594173  1.0
  C  C67  1  0.64348045  0.75766216  0.58131451  1.0
  C  C68  1  0.64281965  0.76144713  0.64611026  1.0
  C  C69  1  0.70356451  0.74267666  0.47675279  1.0
  C  C70  1  0.74376921  0.70091115  0.43954548  1.0
  C  C71  1  0.79092529  0.64954655  0.46337025  1.0
  C  C72  1  0.74170669  0.70563711  0.37405097  1.0
  C  C73  1  0.69669276  0.74658946  0.34201743  1.0
  C  C74  1  0.69965174  0.74767096  0.27293595  1.0
  C  C75  1  0.69121582  0.80376370  0.24043045  1.0
  C  C76  1  0.69106235  0.80489051  0.17577277  1.0
  C  C77  1  0.70433805  0.75129903  0.14058193  1.0
  C  C78  1  0.71657486  0.69529121  0.17127653  1.0
  C  C79  1  0.71289186  0.69380969  0.23604998  1.0
  C  C80  1  0.65197846  0.78456359  0.37928628  1.0
  C  C81  1  0.65866810  0.78377197  0.44458574  1.0
  C  C82  1  0.59529679  0.82769360  0.35565420  1.0
  C  C83  1  0.70426237  0.75116170  0.07143211  1.0
  C  C84  1  0.69971775  0.91319549  0.91160528  1.0
  C  C85  1  0.70398005  0.75059257  0.74752391  1.0
  C  C86  1  0.88545534  0.75045758  0.90821554  1.0
  C  C87  1  0.70855710  0.58792571  0.90795795  1.0
  C  C88  1  0.52349435  0.75125036  0.91132922  1.0
  N  N89  1  0.24516229  0.82588718  0.71384293  1.0
  N  N90  1  0.70922796  0.28062834  0.91104195  1.0
  N  N91  1  0.72122899  0.21770987  0.90564932  1.0
  Cl  Cl92  1  0.22762032  0.62751134  0.77749371  1.0
  O  O93  1  0.81724021  0.30546559  0.87008772  1.0
  O  O94  1  0.70412178  0.75087778  0.90979366  1.0
  O  O95  1  0.74774289  0.71216511  0.76992423  1.0
  O  O96  1  0.54764101  0.78953944  0.87336970  1.0
  O  O97  1  0.66525891  0.61139397  0.94680095  1.0
  O  O98  1  0.66025831  0.78910128  0.77153207  1.0
  O  O99  1  0.75058786  0.61106164  0.86964027  1.0
  O  O100  1  0.54979588  0.71293492  0.94892275  1.0
  O  O101  1  0.66258886  0.71285124  0.04879822  1.0
  O  O102  1  0.85851261  0.78895467  0.94708206  1.0
  O  O103  1  0.74589530  0.78939279  0.04891970  1.0
  O  O104  1  0.86053587  0.71208147  0.86979969  1.0
  O  O105  1  0.65758903  0.89055923  0.87352917  1.0
  O  O106  1  0.74305037  0.89049549  0.94920368  1.0
  F  F107  1  0.45016198  0.64035144  0.90908754  1.0
  F  F108  1  0.09989243  0.85730793  0.87063700  1.0
  F  F109  1  0.96868403  0.63974431  0.91013325  1.0
  F  F110  1  0.96601216  0.86117199  0.90318490  1.0
  F  F111  1  0.43461155  0.86146116  0.91105911  1.0
  F  F112  1  0.83104292  0.53578784  0.91533573  1.0
  F  F113  1  0.58565047  0.97511033  0.95739098  1.0
  F  F114  1  0.59158024  0.49265250  0.89528194  1.0
  F  F115  1  0.58195650  0.76634504  0.55337398  1.0
  F  F116  1  0.72301747  0.63797287  0.26249396  1.0
  F  F117  1  0.67809294  0.85975381  0.14824730  1.0
  F  F118  1  0.82745525  0.73309635  0.55194876  1.0
  Zn  Zn0  1  0.01361407  0.94842693  0.10669352  1.0
  Zn  Zn1  1  0.89453837  0.05314552  0.10888137  1.0
  Zn  Zn2  1  0.89747232  0.94887893  0.21171710  1.0
  Zn  Zn3  1  0.01086059  0.05305908  0.21188217  1.0
  H  H4  1  0.55291728  0.09704286  0.15411562  1.0
  H  H5  1  0.56828643  0.89574409  0.15131423  1.0
  H  H6  1  0.45390256  0.98883075  0.20180206  1.0
  H  H7  1  0.34660161  0.89640496  0.12765960  1.0
  H  H8  1  0.44412698  0.10417315  0.04383249  1.0
  H  H9  1  0.54788815  0.03895585  0.88770021  1.0
  H  H10  1  0.53924427  0.92846106  0.92030819  1.0
  H  H11  1  0.88138759  0.63034953  0.13614210  1.0
  H  H12  1  0.09987800  0.66689249  0.15547701  1.0
  H  H13  1  0.91432149  0.54620946  0.18120997  1.0
  H  H14  1  0.87378365  0.45076767  0.19549459  1.0
  H  H15  1  0.83076265  0.34478548  0.21171362  1.0
  H  H16  1  0.04855394  0.25085890  0.12207257  1.0
  H  H17  1  0.03397706  0.36507665  0.12907636  1.0
  H  H18  1  0.06454439  0.98244468  0.91941093  1.0
  H  H19  1  0.84417575  0.02405778  0.91944028  1.0
  H  H20  1  0.03178804  0.88879688  0.76212689  1.0
  H  H21  1  0.09523038  0.91183323  0.70680718  1.0
  H  H22  1  0.03194703  0.85611934  0.68770443  1.0
  H  H23  1  0.02724631  0.92487657  0.59757552  1.0
  H  H24  1  0.93375482  0.09801462  0.51510038  1.0
  H  H25  1  0.97831694  0.90228033  0.39564339  1.0
  H  H26  1  0.87589930  0.06697187  0.72107033  1.0
  H  H27  1  0.83145971  0.06866241  0.55752219  1.0
  H  H28  1  0.86071862  0.12617801  0.61088376  1.0
  H  H29  1  0.79747211  0.07143906  0.63254721  1.0
  C  C30  1  0.69622589  0.00125339  0.16187957  1.0
  C  C31  1  0.65519954  0.05551708  0.15903133  1.0
  C  C32  1  0.58296216  0.05344739  0.15469285  1.0
  C  C33  1  0.55040822  0.99600357  0.15296267  1.0
  C  C34  1  0.59142285  0.94133848  0.15346727  1.0
  C  C35  1  0.66353510  0.94426634  0.15826138  1.0
  C  C36  1  0.47419368  0.99295992  0.15467803  1.0
  C  C37  1  0.43013807  0.99616512  0.10623190  1.0
  C  C38  1  0.35491202  0.99686109  0.12185939  1.0
  C  C39  1  0.31773641  0.05336646  0.12923616  1.0
  C  C40  1  0.24782080  0.05514391  0.14660141  1.0
  C  C41  1  0.21272888  0.00027940  0.15754248  1.0
  C  C42  1  0.24983984  0.94388072  0.14997083  1.0
  C  C43  1  0.32000360  0.94157968  0.13241214  1.0
  C  C44  1  0.45810864  0.00366092  0.04263064  1.0
  C  C45  1  0.46391995  0.06317093  0.01856736  1.0
  C  C46  1  0.52182124  0.02709340  0.93071152  1.0
  C  C47  1  0.51718627  0.96591411  0.94908648  1.0
  C  C48  1  0.48433521  0.95433236  0.00549091  1.0
  C  C49  1  0.96044770  0.76848562  0.15717574  1.0
  C  C50  1  0.90860401  0.72509972  0.14907767  1.0
  C  C51  1  0.92421611  0.66126555  0.14412479  1.0
  C  C52  1  0.99259368  0.63916661  0.14746577  1.0
  C  C53  1  0.04553585  0.68219687  0.15399925  1.0
  C  C54  1  0.02894217  0.74597861  0.15884114  1.0
  C  C55  1  0.01010081  0.57115935  0.14136246  1.0
  C  C56  1  0.92290224  0.43195535  0.17515597  1.0
  C  C57  1  0.93150172  0.36318244  0.17084484  1.0
  C  C58  1  0.87863906  0.32528066  0.19184727  1.0
  C  C59  1  0.88737368  0.26051176  0.18719069  1.0
  C  C60  1  0.94785672  0.23263553  0.16232294  1.0
  C  C61  1  0.00060896  0.27113535  0.14159671  1.0
  C  C62  1  0.99239922  0.33601567  0.14568953  1.0
  C  C63  1  0.95392053  0.00047121  0.92837370  1.0
  C  C64  1  0.01563568  0.98977271  0.89536451  1.0
  C  C65  1  0.01549325  0.98930564  0.83058489  1.0
  C  C66  1  0.95437436  0.99572212  0.79594173  1.0
  C  C67  1  0.89348045  0.00766216  0.83131451  1.0
  C  C68  1  0.89281965  0.01144713  0.89611026  1.0
  C  C69  1  0.95356451  0.99267666  0.72675279  1.0
  C  C70  1  0.99376921  0.95091115  0.68954548  1.0
  C  C71  1  0.04092529  0.89954655  0.71337025  1.0
  C  C72  1  0.99170669  0.95563711  0.62405097  1.0
  C  C73  1  0.94669276  0.99658946  0.59201743  1.0
  C  C74  1  0.94965174  0.99767096  0.52293595  1.0
  C  C75  1  0.94121582  0.05376370  0.49043045  1.0
  C  C76  1  0.94106235  0.05489051  0.42577277  1.0
  C  C77  1  0.95433805  0.00129903  0.39058193  1.0
  C  C78  1  0.96657486  0.94529121  0.42127653  1.0
  C  C79  1  0.96289186  0.94380969  0.48604998  1.0
  C  C80  1  0.90197846  0.03456359  0.62928628  1.0
  C  C81  1  0.90866810  0.03377197  0.69458574  1.0
  C  C82  1  0.84529679  0.07769360  0.60565420  1.0
  C  C83  1  0.95426237  0.00116170  0.32143211  1.0
  C  C84  1  0.94971775  0.16319549  0.16160528  1.0
  C  C85  1  0.95398005  0.00059257  0.99752391  1.0
  C  C86  1  0.13545534  0.00045758  0.15821554  1.0
  C  C87  1  0.95855710  0.83792571  0.15795795  1.0
  C  C88  1  0.77349435  0.00125036  0.16132922  1.0
  N  N89  1  0.49516229  0.07588718  0.96384293  1.0
  N  N90  1  0.95922796  0.53062834  0.16104195  1.0
  N  N91  1  0.97122899  0.46770987  0.15564932  1.0
  Cl  Cl92  1  0.47762032  0.87751134  0.02749371  1.0
  O  O93  1  0.06724021  0.55546559  0.12008772  1.0
  O  O94  1  0.95412178  0.00087778  0.15979366  1.0
  O  O95  1  0.99774289  0.96216511  0.01992423  1.0
  O  O96  1  0.79764101  0.03953944  0.12336970  1.0
  O  O97  1  0.91525891  0.86139397  0.19680095  1.0
  O  O98  1  0.91025831  0.03910128  0.02153207  1.0
  O  O99  1  0.00058786  0.86106164  0.11964027  1.0
  O  O100  1  0.79979588  0.96293492  0.19892275  1.0
  O  O101  1  0.91258886  0.96285124  0.29879822  1.0
  O  O102  1  0.10851261  0.03895467  0.19708206  1.0
  O  O103  1  0.99589530  0.03939279  0.29891970  1.0
  O  O104  1  0.11053587  0.96208147  0.11979969  1.0
  O  O105  1  0.90758903  0.14055923  0.12352917  1.0
  O  O106  1  0.99305037  0.14049549  0.19920368  1.0
  F  F107  1  0.70016198  0.89035144  0.15908754  1.0
  F  F108  1  0.34989243  0.10730793  0.12063700  1.0
  F  F109  1  0.21868403  0.88974431  0.16013325  1.0
  F  F110  1  0.21601216  0.11117199  0.15318490  1.0
  F  F111  1  0.68461155  0.11146116  0.16105911  1.0
  F  F112  1  0.08104292  0.78578784  0.16533573  1.0
  F  F113  1  0.83565047  0.22511033  0.20739098  1.0
  F  F114  1  0.84158024  0.74265250  0.14528194  1.0
  F  F115  1  0.83195650  0.01634504  0.80337398  1.0
  F  F116  1  0.97301747  0.88797287  0.51249396  1.0
  F  F117  1  0.92809294  0.10975381  0.39824730  1.0
  F  F118  1  0.07745525  0.98309635  0.80194876  1.0
  Zn  Zn0  1  0.26361407  0.19842693  0.35669352  1.0
  Zn  Zn1  1  0.14453837  0.30314552  0.35888137  1.0
  Zn  Zn2  1  0.14747232  0.19887893  0.46171710  1.0
  Zn  Zn3  1  0.26086059  0.30305908  0.46188217  1.0
  H  H4  1  0.80291728  0.34704286  0.40411562  1.0
  H  H5  1  0.81828643  0.14574409  0.40131423  1.0
  H  H6  1  0.70390256  0.23883075  0.45180206  1.0
  H  H7  1  0.59660161  0.14640496  0.37765960  1.0
  H  H8  1  0.69412698  0.35417315  0.29383249  1.0
  H  H9  1  0.79788815  0.28895585  0.13770021  1.0
  H  H10  1  0.78924427  0.17846106  0.17030819  1.0
  H  H11  1  0.13138759  0.88034953  0.38614210  1.0
  H  H12  1  0.34987800  0.91689249  0.40547701  1.0
  H  H13  1  0.16432149  0.79620946  0.43120997  1.0
  H  H14  1  0.12378365  0.70076767  0.44549459  1.0
  H  H15  1  0.08076265  0.59478548  0.46171362  1.0
  H  H16  1  0.29855394  0.50085890  0.37207257  1.0
  H  H17  1  0.28397706  0.61507665  0.37907636  1.0
  H  H18  1  0.31454439  0.23244468  0.16941093  1.0
  H  H19  1  0.09417575  0.27405778  0.16944028  1.0
  H  H20  1  0.28178804  0.13879688  0.01212689  1.0
  H  H21  1  0.34523038  0.16183323  0.95680718  1.0
  H  H22  1  0.28194703  0.10611934  0.93770443  1.0
  H  H23  1  0.27724631  0.17487657  0.84757552  1.0
  H  H24  1  0.18375482  0.34801462  0.76510038  1.0
  H  H25  1  0.22831694  0.15228033  0.64564339  1.0
  H  H26  1  0.12589930  0.31697187  0.97107033  1.0
  H  H27  1  0.08145971  0.31866241  0.80752219  1.0
  H  H28  1  0.11071862  0.37617801  0.86088376  1.0
  H  H29  1  0.04747211  0.32143906  0.88254721  1.0
  C  C30  1  0.94622589  0.25125339  0.41187957  1.0
  C  C31  1  0.90519954  0.30551708  0.40903133  1.0
  C  C32  1  0.83296216  0.30344739  0.40469285  1.0
  C  C33  1  0.80040822  0.24600357  0.40296267  1.0
  C  C34  1  0.84142285  0.19133848  0.40346727  1.0
  C  C35  1  0.91353510  0.19426634  0.40826138  1.0
  C  C36  1  0.72419368  0.24295992  0.40467803  1.0
  C  C37  1  0.68013807  0.24616512  0.35623190  1.0
  C  C38  1  0.60491202  0.24686109  0.37185939  1.0
  C  C39  1  0.56773641  0.30336646  0.37923616  1.0
  C  C40  1  0.49782080  0.30514391  0.39660141  1.0
  C  C41  1  0.46272888  0.25027940  0.40754248  1.0
  C  C42  1  0.49983984  0.19388072  0.39997083  1.0
  C  C43  1  0.57000360  0.19157968  0.38241214  1.0
  C  C44  1  0.70810864  0.25366092  0.29263064  1.0
  C  C45  1  0.71391995  0.31317093  0.26856736  1.0
  C  C46  1  0.77182124  0.27709340  0.18071152  1.0
  C  C47  1  0.76718627  0.21591411  0.19908648  1.0
  C  C48  1  0.73433521  0.20433236  0.25549091  1.0
  C  C49  1  0.21044770  0.01848562  0.40717574  1.0
  C  C50  1  0.15860401  0.97509972  0.39907767  1.0
  C  C51  1  0.17421611  0.91126555  0.39412479  1.0
  C  C52  1  0.24259368  0.88916661  0.39746577  1.0
  C  C53  1  0.29553585  0.93219687  0.40399925  1.0
  C  C54  1  0.27894217  0.99597861  0.40884114  1.0
  C  C55  1  0.26010081  0.82115935  0.39136246  1.0
  C  C56  1  0.17290224  0.68195535  0.42515597  1.0
  C  C57  1  0.18150172  0.61318244  0.42084484  1.0
  C  C58  1  0.12863906  0.57528066  0.44184727  1.0
  C  C59  1  0.13737368  0.51051176  0.43719069  1.0
  C  C60  1  0.19785672  0.48263553  0.41232294  1.0
  C  C61  1  0.25060896  0.52113535  0.39159671  1.0
  C  C62  1  0.24239922  0.58601567  0.39568953  1.0
  C  C63  1  0.20392053  0.25047121  0.17837370  1.0
  C  C64  1  0.26563568  0.23977271  0.14536451  1.0
  C  C65  1  0.26549325  0.23930564  0.08058489  1.0
  C  C66  1  0.20437436  0.24572212  0.04594173  1.0
  C  C67  1  0.14348045  0.25766216  0.08131451  1.0
  C  C68  1  0.14281965  0.26144713  0.14611026  1.0
  C  C69  1  0.20356451  0.24267666  0.97675279  1.0
  C  C70  1  0.24376921  0.20091115  0.93954548  1.0
  C  C71  1  0.29092529  0.14954655  0.96337025  1.0
  C  C72  1  0.24170669  0.20563711  0.87405097  1.0
  C  C73  1  0.19669276  0.24658946  0.84201743  1.0
  C  C74  1  0.19965174  0.24767096  0.77293595  1.0
  C  C75  1  0.19121582  0.30376370  0.74043045  1.0
  C  C76  1  0.19106235  0.30489051  0.67577277  1.0
  C  C77  1  0.20433805  0.25129903  0.64058193  1.0
  C  C78  1  0.21657486  0.19529121  0.67127653  1.0
  C  C79  1  0.21289186  0.19380969  0.73604998  1.0
  C  C80  1  0.15197846  0.28456359  0.87928628  1.0
  C  C81  1  0.15866810  0.28377197  0.94458574  1.0
  C  C82  1  0.09529679  0.32769360  0.85565420  1.0
  C  C83  1  0.20426237  0.25116170  0.57143211  1.0
  C  C84  1  0.19971775  0.41319549  0.41160528  1.0
  C  C85  1  0.20398005  0.25059257  0.24752391  1.0
  C  C86  1  0.38545534  0.25045758  0.40821554  1.0
  C  C87  1  0.20855710  0.08792571  0.40795795  1.0
  C  C88  1  0.02349435  0.25125036  0.41132922  1.0
  N  N89  1  0.74516229  0.32588718  0.21384293  1.0
  N  N90  1  0.20922796  0.78062834  0.41104195  1.0
  N  N91  1  0.22122899  0.71770987  0.40564932  1.0
  Cl  Cl92  1  0.72762032  0.12751134  0.27749371  1.0
  O  O93  1  0.31724021  0.80546559  0.37008772  1.0
  O  O94  1  0.20412178  0.25087778  0.40979366  1.0
  O  O95  1  0.24774289  0.21216511  0.26992423  1.0
  O  O96  1  0.04764101  0.28953944  0.37336970  1.0
  O  O97  1  0.16525891  0.11139397  0.44680095  1.0
  O  O98  1  0.16025831  0.28910128  0.27153207  1.0
  O  O99  1  0.25058786  0.11106164  0.36964027  1.0
  O  O100  1  0.04979588  0.21293492  0.44892275  1.0
  O  O101  1  0.16258886  0.21285124  0.54879822  1.0
  O  O102  1  0.35851261  0.28895467  0.44708206  1.0
  O  O103  1  0.24589530  0.28939279  0.54891970  1.0
  O  O104  1  0.36053587  0.21208147  0.36979969  1.0
  O  O105  1  0.15758903  0.39055923  0.37352917  1.0
  O  O106  1  0.24305037  0.39049549  0.44920368  1.0
  F  F107  1  0.95016198  0.14035144  0.40908754  1.0
  F  F108  1  0.59989243  0.35730793  0.37063700  1.0
  F  F109  1  0.46868403  0.13974431  0.41013325  1.0
  F  F110  1  0.46601216  0.36117199  0.40318490  1.0
  F  F111  1  0.93461155  0.36146116  0.41105911  1.0
  F  F112  1  0.33104292  0.03578784  0.41533573  1.0
  F  F113  1  0.08565047  0.47511033  0.45739098  1.0
  F  F114  1  0.09158024  0.99265250  0.39528194  1.0
  F  F115  1  0.08195650  0.26634504  0.05337398  1.0
  F  F116  1  0.22301747  0.13797287  0.76249396  1.0
  F  F117  1  0.17809294  0.35975381  0.64824730  1.0
  F  F118  1  0.32745525  0.23309635  0.05194876  1.0
  Zn  Zn0  1  0.51361407  0.44842693  0.60669352  1.0
  Zn  Zn1  1  0.39453837  0.55314552  0.60888137  1.0
  Zn  Zn2  1  0.39747232  0.44887893  0.71171710  1.0
  Zn  Zn3  1  0.51086059  0.55305908  0.71188217  1.0
  H  H4  1  0.05291728  0.59704286  0.65411562  1.0
  H  H5  1  0.06828643  0.39574409  0.65131423  1.0
  H  H6  1  0.95390256  0.48883075  0.70180206  1.0
  H  H7  1  0.84660161  0.39640496  0.62765960  1.0
  H  H8  1  0.94412698  0.60417315  0.54383249  1.0
  H  H9  1  0.04788815  0.53895585  0.38770021  1.0
  H  H10  1  0.03924427  0.42846106  0.42030819  1.0
  H  H11  1  0.38138759  0.13034953  0.63614210  1.0
  H  H12  1  0.59987800  0.16689249  0.65547701  1.0
  H  H13  1  0.41432149  0.04620946  0.68120997  1.0
  H  H14  1  0.37378365  0.95076767  0.69549459  1.0
  H  H15  1  0.33076265  0.84478548  0.71171362  1.0
  H  H16  1  0.54855394  0.75085890  0.62207257  1.0
  H  H17  1  0.53397706  0.86507665  0.62907636  1.0
  H  H18  1  0.56454439  0.48244468  0.41941093  1.0
  H  H19  1  0.34417575  0.52405778  0.41944028  1.0
  H  H20  1  0.53178804  0.38879688  0.26212689  1.0
  H  H21  1  0.59523038  0.41183323  0.20680718  1.0
  H  H22  1  0.53194703  0.35611934  0.18770443  1.0
  H  H23  1  0.52724631  0.42487657  0.09757552  1.0
  H  H24  1  0.43375482  0.59801462  0.01510038  1.0
  H  H25  1  0.47831694  0.40228033  0.89564339  1.0
  H  H26  1  0.37589930  0.56697187  0.22107033  1.0
  H  H27  1  0.33145971  0.56866241  0.05752219  1.0
  H  H28  1  0.36071862  0.62617801  0.11088376  1.0
  H  H29  1  0.29747211  0.57143906  0.13254721  1.0
  C  C30  1  0.19622589  0.50125339  0.66187957  1.0
  C  C31  1  0.15519954  0.55551708  0.65903133  1.0
  C  C32  1  0.08296216  0.55344739  0.65469285  1.0
  C  C33  1  0.05040822  0.49600357  0.65296267  1.0
  C  C34  1  0.09142285  0.44133848  0.65346727  1.0
  C  C35  1  0.16353510  0.44426634  0.65826138  1.0
  C  C36  1  0.97419368  0.49295992  0.65467803  1.0
  C  C37  1  0.93013807  0.49616512  0.60623190  1.0
  C  C38  1  0.85491202  0.49686109  0.62185939  1.0
  C  C39  1  0.81773641  0.55336646  0.62923616  1.0
  C  C40  1  0.74782080  0.55514391  0.64660141  1.0
  C  C41  1  0.71272888  0.50027940  0.65754248  1.0
  C  C42  1  0.74983984  0.44388072  0.64997083  1.0
  C  C43  1  0.82000360  0.44157968  0.63241214  1.0
  C  C44  1  0.95810864  0.50366092  0.54263064  1.0
  C  C45  1  0.96391995  0.56317093  0.51856736  1.0
  C  C46  1  0.02182124  0.52709340  0.43071152  1.0
  C  C47  1  0.01718627  0.46591411  0.44908648  1.0
  C  C48  1  0.98433521  0.45433236  0.50549091  1.0
  C  C49  1  0.46044770  0.26848562  0.65717574  1.0
  C  C50  1  0.40860401  0.22509972  0.64907767  1.0
  C  C51  1  0.42421611  0.16126555  0.64412479  1.0
  C  C52  1  0.49259368  0.13916661  0.64746577  1.0
  C  C53  1  0.54553585  0.18219687  0.65399925  1.0
  C  C54  1  0.52894217  0.24597861  0.65884114  1.0
  C  C55  1  0.51010081  0.07115935  0.64136246  1.0
  C  C56  1  0.42290224  0.93195535  0.67515597  1.0
  C  C57  1  0.43150172  0.86318244  0.67084484  1.0
  C  C58  1  0.37863906  0.82528066  0.69184727  1.0
  C  C59  1  0.38737368  0.76051176  0.68719069  1.0
  C  C60  1  0.44785672  0.73263553  0.66232294  1.0
  C  C61  1  0.50060896  0.77113535  0.64159671  1.0
  C  C62  1  0.49239922  0.83601567  0.64568953  1.0
  C  C63  1  0.45392053  0.50047121  0.42837370  1.0
  C  C64  1  0.51563568  0.48977271  0.39536451  1.0
  C  C65  1  0.51549325  0.48930564  0.33058489  1.0
  C  C66  1  0.45437436  0.49572212  0.29594173  1.0
  C  C67  1  0.39348045  0.50766216  0.33131451  1.0
  C  C68  1  0.39281965  0.51144713  0.39611026  1.0
  C  C69  1  0.45356451  0.49267666  0.22675279  1.0
  C  C70  1  0.49376921  0.45091115  0.18954548  1.0
  C  C71  1  0.54092529  0.39954655  0.21337025  1.0
  C  C72  1  0.49170669  0.45563711  0.12405097  1.0
  C  C73  1  0.44669276  0.49658946  0.09201743  1.0
  C  C74  1  0.44965174  0.49767096  0.02293595  1.0
  C  C75  1  0.44121582  0.55376370  0.99043045  1.0
  C  C76  1  0.44106235  0.55489051  0.92577277  1.0
  C  C77  1  0.45433805  0.50129903  0.89058193  1.0
  C  C78  1  0.46657486  0.44529121  0.92127653  1.0
  C  C79  1  0.46289186  0.44380969  0.98604998  1.0
  C  C80  1  0.40197846  0.53456359  0.12928628  1.0
  C  C81  1  0.40866810  0.53377197  0.19458574  1.0
  C  C82  1  0.34529679  0.57769360  0.10565420  1.0
  C  C83  1  0.45426237  0.50116170  0.82143211  1.0
  C  C84  1  0.44971775  0.66319549  0.66160528  1.0
  C  C85  1  0.45398005  0.50059257  0.49752391  1.0
  C  C86  1  0.63545534  0.50045758  0.65821554  1.0
  C  C87  1  0.45855710  0.33792571  0.65795795  1.0
  C  C88  1  0.27349435  0.50125036  0.66132922  1.0
  N  N89  1  0.99516229  0.57588718  0.46384293  1.0
  N  N90  1  0.45922796  0.03062834  0.66104195  1.0
  N  N91  1  0.47122899  0.96770987  0.65564932  1.0
  Cl  Cl92  1  0.97762032  0.37751134  0.52749371  1.0
  O  O93  1  0.56724021  0.05546559  0.62008772  1.0
  O  O94  1  0.45412178  0.50087778  0.65979366  1.0
  O  O95  1  0.49774289  0.46216511  0.51992423  1.0
  O  O96  1  0.29764101  0.53953944  0.62336970  1.0
  O  O97  1  0.41525891  0.36139397  0.69680095  1.0
  O  O98  1  0.41025831  0.53910128  0.52153207  1.0
  O  O99  1  0.50058786  0.36106164  0.61964027  1.0
  O  O100  1  0.29979588  0.46293492  0.69892275  1.0
  O  O101  1  0.41258886  0.46285124  0.79879822  1.0
  O  O102  1  0.60851261  0.53895467  0.69708206  1.0
  O  O103  1  0.49589530  0.53939279  0.79891970  1.0
  O  O104  1  0.61053587  0.46208147  0.61979969  1.0
  O  O105  1  0.40758903  0.64055923  0.62352917  1.0
  O  O106  1  0.49305037  0.64049549  0.69920368  1.0
  F  F107  1  0.20016198  0.39035144  0.65908754  1.0
  F  F108  1  0.84989243  0.60730793  0.62063700  1.0
  F  F109  1  0.71868403  0.38974431  0.66013325  1.0
  F  F110  1  0.71601216  0.61117199  0.65318490  1.0
  F  F111  1  0.18461155  0.61146116  0.66105911  1.0
  F  F112  1  0.58104292  0.28578784  0.66533573  1.0
  F  F113  1  0.33565047  0.72511033  0.70739098  1.0
  F  F114  1  0.34158024  0.24265250  0.64528194  1.0
  F  F115  1  0.33195650  0.51634504  0.30337398  1.0
  F  F116  1  0.47301747  0.38797287  0.01249396  1.0
  F  F117  1  0.42809294  0.60975381  0.89824730  1.0
  F  F118  1  0.57745525  0.48309635  0.30194876  1.0
