# generated using pymatgen
data_Zn2H11C27N3(OF)8
_symmetry_space_group_name_H-M   'P 1'
_cell_length_a   21.18301846
_cell_length_b   19.28387287
_cell_length_c   21.00781865
_cell_angle_alpha   89.46978628
_cell_angle_beta   90.52679001
_cell_angle_gamma   90.84155370
_symmetry_Int_Tables_number   1
_chemical_formula_structural   Zn2H11C27N3(OF)8
_chemical_formula_sum   'Zn16 H88 C216 N24 O64 F64'
_cell_volume   8579.85201758
_cell_formula_units_Z   8
loop_
 _symmetry_equiv_pos_site_id
 _symmetry_equiv_pos_as_xyz
  1  'x, y, z'
loop_
 _atom_site_type_symbol
 _atom_site_label
 _atom_site_symmetry_multiplicity
 _atom_site_fract_x
 _atom_site_fract_y
 _atom_site_fract_z
 _atom_site_occupancy
  Zn  Zn0  1  0.77360345  0.66520169  0.85189674  1.0
  Zn  Zn1  1  0.66911308  0.78118517  0.85109771  1.0
  Zn  Zn2  1  0.66781288  0.66373045  0.95763915  1.0
  Zn  Zn3  1  0.77494111  0.78021103  0.95873232  1.0
  Zn  Zn4  1  0.02360345  0.91520169  0.10189674  1.0
  Zn  Zn5  1  0.91911308  0.03118517  0.10109771  1.0
  Zn  Zn6  1  0.91781288  0.91373045  0.20763915  1.0
  Zn  Zn7  1  0.02494111  0.03021103  0.20873232  1.0
  Zn  Zn8  1  0.27360345  0.16520169  0.35189674  1.0
  Zn  Zn9  1  0.16911308  0.28118517  0.35109771  1.0
  Zn  Zn10  1  0.16781288  0.16373045  0.45763915  1.0
  Zn  Zn11  1  0.27494111  0.28021103  0.45873232  1.0
  Zn  Zn12  1  0.52360345  0.41520169  0.60189674  1.0
  Zn  Zn13  1  0.41911308  0.53118517  0.60109771  1.0
  Zn  Zn14  1  0.41781288  0.41373045  0.70763915  1.0
  Zn  Zn15  1  0.52494111  0.53021103  0.70873232  1.0
  H  H16  1  0.35786320  0.66168223  0.98124944  1.0
  H  H17  1  0.36921129  0.77130715  0.80174887  1.0
  H  H18  1  0.23296337  0.74297281  0.80537702  1.0
  H  H19  1  0.27953634  0.81181255  0.83675583  1.0
  H  H20  1  0.16689685  0.82608816  0.85848700  1.0
  H  H21  1  0.21224448  0.82227944  0.92989252  1.0
  H  H22  1  0.96273518  0.83546105  0.90721185  1.0
  H  H23  1  0.16674096  0.63806619  0.96944996  1.0
  H  H24  1  0.21469158  0.70820612  0.99254376  1.0
  H  H25  1  0.22855389  0.62673375  0.86856522  1.0
  H  H26  1  0.27590100  0.61682528  0.93688900  1.0
  H  H27  1  0.79935837  0.33763173  0.83147975  1.0
  H  H28  1  0.83152032  0.09225843  0.83866322  1.0
  H  H29  1  0.80587743  0.96807131  0.84519216  1.0
  H  H30  1  0.86674088  0.15075413  0.96633020  1.0
  H  H31  1  0.92709213  0.19366573  0.92648877  1.0
  H  H32  1  0.91366847  0.58952601  0.46724990  1.0
  H  H33  1  0.89559265  0.67804141  0.45208073  1.0
  H  H34  1  0.91501398  0.59365601  0.35027624  1.0
  H  H35  1  0.81505154  0.59893808  0.29460325  1.0
  H  H36  1  0.63526191  0.60863997  0.23540081  1.0
  H  H37  1  0.64171575  0.65066584  0.12402835  1.0
  H  H38  1  0.60786320  0.91168223  0.23124944  1.0
  H  H39  1  0.61921129  0.02130715  0.05174887  1.0
  H  H40  1  0.48296337  0.99297281  0.05537702  1.0
  H  H41  1  0.52953634  0.06181255  0.08675583  1.0
  H  H42  1  0.41689685  0.07608816  0.10848700  1.0
  H  H43  1  0.46224448  0.07227944  0.17989252  1.0
  H  H44  1  0.21273518  0.08546105  0.15721185  1.0
  H  H45  1  0.41674096  0.88806619  0.21944996  1.0
  H  H46  1  0.46469158  0.95820612  0.24254376  1.0
  H  H47  1  0.47855389  0.87673375  0.11856522  1.0
  H  H48  1  0.52590100  0.86682528  0.18688900  1.0
  H  H49  1  0.04935837  0.58763173  0.08147975  1.0
  H  H50  1  0.08152032  0.34225843  0.08866322  1.0
  H  H51  1  0.05587743  0.21807131  0.09519216  1.0
  H  H52  1  0.11674088  0.40075413  0.21633020  1.0
  H  H53  1  0.17709213  0.44366573  0.17648877  1.0
  H  H54  1  0.16366847  0.83952601  0.71724990  1.0
  H  H55  1  0.14559265  0.92804141  0.70208073  1.0
  H  H56  1  0.16501398  0.84365601  0.60027624  1.0
  H  H57  1  0.06505154  0.84893808  0.54460325  1.0
  H  H58  1  0.88526191  0.85863997  0.48540081  1.0
  H  H59  1  0.89171575  0.90066584  0.37402835  1.0
  H  H60  1  0.85786320  0.16168223  0.48124944  1.0
  H  H61  1  0.86921129  0.27130715  0.30174887  1.0
  H  H62  1  0.73296337  0.24297281  0.30537702  1.0
  H  H63  1  0.77953634  0.31181255  0.33675583  1.0
  H  H64  1  0.66689685  0.32608816  0.35848700  1.0
  H  H65  1  0.71224448  0.32227944  0.42989252  1.0
  H  H66  1  0.46273518  0.33546105  0.40721185  1.0
  H  H67  1  0.66674096  0.13806619  0.46944996  1.0
  H  H68  1  0.71469158  0.20820612  0.49254376  1.0
  H  H69  1  0.72855389  0.12673375  0.36856522  1.0
  H  H70  1  0.77590100  0.11682528  0.43688900  1.0
  H  H71  1  0.29935837  0.83763173  0.33147975  1.0
  H  H72  1  0.33152032  0.59225843  0.33866322  1.0
  H  H73  1  0.30587743  0.46807131  0.34519216  1.0
  H  H74  1  0.36674088  0.65075413  0.46633020  1.0
  H  H75  1  0.42709213  0.69366573  0.42648877  1.0
  H  H76  1  0.41366847  0.08952601  0.96724990  1.0
  H  H77  1  0.39559265  0.17804141  0.95208073  1.0
  H  H78  1  0.41501398  0.09365601  0.85027624  1.0
  H  H79  1  0.31505154  0.09893808  0.79460325  1.0
  H  H80  1  0.13526191  0.10863997  0.73540081  1.0
  H  H81  1  0.14171575  0.15066584  0.62402835  1.0
  H  H82  1  0.10786320  0.41168223  0.73124944  1.0
  H  H83  1  0.11921129  0.52130715  0.55174887  1.0
  H  H84  1  0.98296337  0.49297281  0.55537702  1.0
  H  H85  1  0.02953634  0.56181255  0.58675583  1.0
  H  H86  1  0.91689685  0.57608816  0.60848700  1.0
  H  H87  1  0.96224448  0.57227944  0.67989252  1.0
  H  H88  1  0.71273518  0.58546105  0.65721185  1.0
  H  H89  1  0.91674096  0.38806619  0.71944996  1.0
  H  H90  1  0.96469158  0.45820612  0.74254376  1.0
  H  H91  1  0.97855389  0.37673375  0.61856522  1.0
  H  H92  1  0.02590100  0.36682528  0.68688900  1.0
  H  H93  1  0.54935837  0.08763173  0.58147975  1.0
  H  H94  1  0.58152032  0.84225843  0.58866322  1.0
  H  H95  1  0.55587743  0.71807131  0.59519216  1.0
  H  H96  1  0.61674088  0.90075413  0.71633020  1.0
  H  H97  1  0.67709213  0.94366573  0.67648877  1.0
  H  H98  1  0.66366847  0.33952601  0.21724990  1.0
  H  H99  1  0.64559265  0.42804141  0.20208073  1.0
  H  H100  1  0.66501398  0.34365601  0.10027624  1.0
  H  H101  1  0.56505154  0.34893808  0.04460325  1.0
  H  H102  1  0.38526191  0.35863997  0.98540081  1.0
  H  H103  1  0.39171575  0.40066584  0.87402835  1.0
  C  C104  1  0.48658983  0.72178613  0.90258229  1.0
  C  C105  1  0.44946759  0.68919009  0.94851310  1.0
  C  C106  1  0.38368227  0.68612619  0.94242658  1.0
  C  C107  1  0.35202634  0.71557720  0.89020914  1.0
  C  C108  1  0.38985620  0.74830223  0.84433889  1.0
  C  C109  1  0.45558421  0.75124208  0.85062634  1.0
  C  C110  1  0.25082282  0.76621680  0.84961665  1.0
  C  C111  1  0.19450784  0.79185496  0.88944690  1.0
  C  C112  1  0.09180370  0.72999298  0.91239588  1.0
  C  C113  1  0.05449875  0.78987289  0.91098453  1.0
  C  C114  1  0.98856204  0.78706960  0.90818666  1.0
  C  C115  1  0.95678553  0.72313598  0.90694566  1.0
  C  C116  1  0.99212794  0.66317664  0.90800647  1.0
  C  C117  1  0.05791994  0.66666667  0.91036186  1.0
  C  C118  1  0.19457661  0.68175780  0.95079636  1.0
  C  C119  1  0.24858975  0.65467380  0.90951384  1.0
  C  C120  1  0.71843248  0.46397458  0.90451398  1.0
  C  C121  1  0.67512788  0.42216568  0.93666251  1.0
  C  C122  1  0.67885222  0.34975635  0.93496332  1.0
  C  C123  1  0.72572120  0.31591014  0.90030038  1.0
  C  C124  1  0.76584510  0.35839570  0.86465952  1.0
  C  C125  1  0.76355175  0.43090614  0.86832408  1.0
  C  C126  1  0.77021096  0.19935295  0.89686919  1.0
  C  C127  1  0.75416764  0.12345375  0.89918248  1.0
  C  C128  1  0.79118628  0.07559515  0.86705483  1.0
  C  C129  1  0.77646563  0.00463655  0.87024624  1.0
  C  C130  1  0.72433535  0.98048534  0.90508552  1.0
  C  C131  1  0.68764876  0.02825036  0.93674932  1.0
  C  C132  1  0.70255939  0.09892266  0.93434704  1.0
  C  C133  1  0.84067428  0.21757190  0.89104652  1.0
  C  C134  1  0.72132594  0.72530278  0.66746702  1.0
  C  C135  1  0.77759726  0.72738272  0.63398192  1.0
  C  C136  1  0.77779945  0.71829343  0.56810090  1.0
  C  C137  1  0.72289433  0.70128591  0.53344848  1.0
  C  C138  1  0.66639255  0.70154073  0.56772332  1.0
  C  C139  1  0.66563276  0.71388630  0.63338079  1.0
  C  C140  1  0.76215272  0.64848797  0.43911983  1.0
  C  C141  1  0.81584373  0.61183431  0.47388990  1.0
  C  C142  1  0.87975036  0.62439501  0.44474251  1.0
  C  C143  1  0.87289457  0.60873750  0.37556027  1.0
  C  C144  1  0.81741426  0.61247796  0.34467780  1.0
  C  C145  1  0.70776581  0.64864214  0.33630678  1.0
  C  C146  1  0.71427457  0.67178880  0.26869671  1.0
  C  C147  1  0.67185062  0.64641979  0.22244471  1.0
  C  C148  1  0.67546455  0.67032628  0.15929022  1.0
  C  C149  1  0.72142481  0.71988685  0.14156838  1.0
  C  C150  1  0.76364986  0.74399032  0.18774026  1.0
  C  C151  1  0.75963784  0.72107495  0.25066774  1.0
  C  C152  1  0.72139747  0.72068203  0.07063915  1.0
  C  C153  1  0.72343155  0.90321090  0.90505335  1.0
  C  C154  1  0.72133796  0.72448972  0.73839652  1.0
  C  C155  1  0.88644116  0.72296984  0.90631737  1.0
  C  C156  1  0.71930929  0.54124801  0.90461183  1.0
  C  C157  1  0.55693602  0.72214553  0.90333468  1.0
  C  C158  1  0.73658983  0.97178613  0.15258229  1.0
  C  C159  1  0.69946759  0.93919009  0.19851310  1.0
  C  C160  1  0.63368227  0.93612619  0.19242658  1.0
  C  C161  1  0.60202634  0.96557720  0.14020914  1.0
  C  C162  1  0.63985620  0.99830223  0.09433889  1.0
  C  C163  1  0.70558421  0.00124208  0.10062634  1.0
  C  C164  1  0.50082282  0.01621680  0.09961665  1.0
  C  C165  1  0.44450784  0.04185496  0.13944690  1.0
  C  C166  1  0.34180370  0.97999298  0.16239588  1.0
  C  C167  1  0.30449875  0.03987289  0.16098453  1.0
  C  C168  1  0.23856204  0.03706960  0.15818666  1.0
  C  C169  1  0.20678553  0.97313598  0.15694566  1.0
  C  C170  1  0.24212794  0.91317664  0.15800647  1.0
  C  C171  1  0.30791994  0.91663438  0.16036186  1.0
  C  C172  1  0.44457661  0.93175780  0.20079636  1.0
  C  C173  1  0.49858975  0.90467380  0.15951384  1.0
  C  C174  1  0.96843248  0.71397458  0.15451398  1.0
  C  C175  1  0.92512788  0.67216568  0.18666251  1.0
  C  C176  1  0.92885222  0.59975635  0.18496332  1.0
  C  C177  1  0.97572120  0.56591014  0.15030038  1.0
  C  C178  1  0.01584510  0.60839570  0.11465952  1.0
  C  C179  1  0.01355175  0.68090614  0.11832408  1.0
  C  C180  1  0.02021096  0.44935295  0.14686919  1.0
  C  C181  1  0.00416764  0.37345375  0.14918248  1.0
  C  C182  1  0.04118628  0.32559515  0.11705483  1.0
  C  C183  1  0.02646563  0.25463655  0.12024624  1.0
  C  C184  1  0.97433535  0.23048534  0.15508552  1.0
  C  C185  1  0.93764876  0.27825036  0.18674932  1.0
  C  C186  1  0.95255939  0.34892266  0.18434704  1.0
  C  C187  1  0.09067428  0.46757190  0.14104652  1.0
  C  C188  1  0.97132594  0.97530278  0.91746702  1.0
  C  C189  1  0.02759726  0.97738272  0.88398192  1.0
  C  C190  1  0.02779945  0.96829343  0.81810090  1.0
  C  C191  1  0.97289433  0.95128591  0.78344848  1.0
  C  C192  1  0.91639255  0.95154073  0.81772332  1.0
  C  C193  1  0.91563276  0.96388630  0.88338079  1.0
  C  C194  1  0.01215272  0.89848797  0.68911983  1.0
  C  C195  1  0.06584373  0.86183431  0.72388990  1.0
  C  C196  1  0.12975036  0.87439501  0.69474251  1.0
  C  C197  1  0.12289457  0.85873750  0.62556027  1.0
  C  C198  1  0.06741426  0.86247796  0.59467780  1.0
  C  C199  1  0.95776581  0.89864214  0.58630678  1.0
  C  C200  1  0.96427457  0.92178880  0.51869671  1.0
  C  C201  1  0.92185062  0.89641979  0.47244471  1.0
  C  C202  1  0.92546455  0.92032628  0.40929022  1.0
  C  C203  1  0.97142481  0.96988685  0.39156838  1.0
  C  C204  1  0.01364986  0.99399032  0.43774026  1.0
  C  C205  1  0.00963784  0.97107495  0.50066774  1.0
  C  C206  1  0.97139747  0.97068203  0.32063915  1.0
  C  C207  1  0.97343155  0.15321090  0.15505335  1.0
  C  C208  1  0.97133796  0.97448972  0.98839652  1.0
  C  C209  1  0.13644116  0.97296984  0.15631737  1.0
  C  C210  1  0.96930929  0.79124801  0.15461183  1.0
  C  C211  1  0.80693602  0.97214553  0.15333468  1.0
  C  C212  1  0.98658983  0.22178613  0.40258229  1.0
  C  C213  1  0.94946759  0.18919009  0.44851310  1.0
  C  C214  1  0.88368227  0.18612619  0.44242658  1.0
  C  C215  1  0.85202634  0.21557720  0.39020914  1.0
  C  C216  1  0.88985620  0.24830223  0.34433889  1.0
  C  C217  1  0.95558421  0.25124208  0.35062634  1.0
  C  C218  1  0.75082282  0.26621680  0.34961665  1.0
  C  C219  1  0.69450784  0.29185496  0.38944690  1.0
  C  C220  1  0.59180370  0.22999298  0.41239588  1.0
  C  C221  1  0.55449875  0.28987289  0.41098453  1.0
  C  C222  1  0.48856204  0.28706960  0.40818666  1.0
  C  C223  1  0.45678553  0.22313598  0.40694566  1.0
  C  C224  1  0.49212794  0.16317664  0.40800647  1.0
  C  C225  1  0.55791994  0.16663438  0.41036186  1.0
  C  C226  1  0.69457661  0.18175780  0.45079636  1.0
  C  C227  1  0.74858975  0.15467380  0.40951384  1.0
  C  C228  1  0.21843248  0.96397458  0.40451398  1.0
  C  C229  1  0.17512788  0.92216568  0.43666251  1.0
  C  C230  1  0.17885222  0.84975635  0.43496332  1.0
  C  C231  1  0.22572120  0.81591014  0.40030038  1.0
  C  C232  1  0.26584510  0.85839570  0.36465952  1.0
  C  C233  1  0.26355175  0.93090614  0.36832408  1.0
  C  C234  1  0.27021096  0.69935295  0.39686919  1.0
  C  C235  1  0.25416764  0.62345375  0.39918248  1.0
  C  C236  1  0.29118628  0.57559515  0.36705483  1.0
  C  C237  1  0.27646563  0.50463655  0.37024624  1.0
  C  C238  1  0.22433535  0.48048534  0.40508552  1.0
  C  C239  1  0.18764876  0.52825036  0.43674932  1.0
  C  C240  1  0.20255939  0.59892266  0.43434704  1.0
  C  C241  1  0.34067428  0.71757190  0.39104652  1.0
  C  C242  1  0.22132594  0.22530278  0.16746702  1.0
  C  C243  1  0.27759726  0.22738272  0.13398192  1.0
  C  C244  1  0.27779945  0.21829343  0.06810090  1.0
  C  C245  1  0.22289433  0.20128591  0.03344848  1.0
  C  C246  1  0.16639255  0.20154073  0.06772332  1.0
  C  C247  1  0.16563276  0.21388630  0.13338079  1.0
  C  C248  1  0.26215272  0.14848797  0.93911983  1.0
  C  C249  1  0.31584373  0.11183431  0.97388990  1.0
  C  C250  1  0.37975036  0.12439501  0.94474251  1.0
  C  C251  1  0.37289457  0.10873750  0.87556027  1.0
  C  C252  1  0.31741426  0.11247796  0.84467780  1.0
  C  C253  1  0.20776581  0.14864214  0.83630678  1.0
  C  C254  1  0.21427457  0.17178880  0.76869671  1.0
  C  C255  1  0.17185062  0.14641979  0.72244471  1.0
  C  C256  1  0.17546455  0.17032628  0.65929022  1.0
  C  C257  1  0.22142481  0.21988685  0.64156838  1.0
  C  C258  1  0.26364986  0.24399032  0.68774026  1.0
  C  C259  1  0.25963784  0.22107495  0.75066774  1.0
  C  C260  1  0.22139747  0.22068203  0.57063915  1.0
  C  C261  1  0.22343155  0.40321090  0.40505335  1.0
  C  C262  1  0.22133796  0.22448972  0.23839652  1.0
  C  C263  1  0.38644116  0.22296984  0.40631737  1.0
  C  C264  1  0.21930929  0.04124801  0.40461183  1.0
  C  C265  1  0.05693602  0.22214553  0.40333468  1.0
  C  C266  1  0.23658983  0.47178613  0.65258229  1.0
  C  C267  1  0.19946759  0.43919009  0.69851310  1.0
  C  C268  1  0.13368227  0.43612619  0.69242658  1.0
  C  C269  1  0.10202634  0.46557720  0.64020914  1.0
  C  C270  1  0.13985620  0.49830223  0.59433889  1.0
  C  C271  1  0.20558421  0.50124208  0.60062634  1.0
  C  C272  1  0.00082282  0.51621680  0.59961665  1.0
  C  C273  1  0.94450784  0.54185496  0.63944690  1.0
  C  C274  1  0.84180370  0.47999298  0.66239588  1.0
  C  C275  1  0.80449875  0.53987289  0.66098453  1.0
  C  C276  1  0.73856204  0.53706960  0.65818666  1.0
  C  C277  1  0.70678553  0.47313598  0.65694566  1.0
  C  C278  1  0.74212794  0.41317664  0.65800647  1.0
  C  C279  1  0.80791994  0.41663438  0.66036186  1.0
  C  C280  1  0.94457661  0.43175780  0.70079636  1.0
  C  C281  1  0.99858975  0.40467380  0.65951384  1.0
  C  C282  1  0.46843248  0.21397458  0.65451398  1.0
  C  C283  1  0.42512788  0.17216568  0.68666251  1.0
  C  C284  1  0.42885222  0.09975635  0.68496332  1.0
  C  C285  1  0.47572120  0.06591014  0.65030038  1.0
  C  C286  1  0.51584510  0.10839570  0.61465952  1.0
  C  C287  1  0.51355175  0.18090614  0.61832408  1.0
  C  C288  1  0.52021096  0.94935295  0.64686919  1.0
  C  C289  1  0.50416764  0.87345375  0.64918248  1.0
  C  C290  1  0.54118628  0.82559515  0.61705483  1.0
  C  C291  1  0.52646563  0.75463655  0.62024624  1.0
  C  C292  1  0.47433535  0.73048534  0.65508552  1.0
  C  C293  1  0.43764876  0.77825036  0.68674932  1.0
  C  C294  1  0.45255939  0.84892266  0.68434704  1.0
  C  C295  1  0.59067428  0.96757190  0.64104652  1.0
  C  C296  1  0.47132594  0.47530278  0.41746702  1.0
  C  C297  1  0.52759726  0.47738272  0.38398192  1.0
  C  C298  1  0.52779945  0.46829343  0.31810090  1.0
  C  C299  1  0.47289433  0.45128591  0.28344848  1.0
  C  C300  1  0.41639255  0.45154073  0.31772332  1.0
  C  C301  1  0.41563276  0.46388630  0.38338079  1.0
  C  C302  1  0.51215272  0.39848797  0.18911983  1.0
  C  C303  1  0.56584373  0.36183431  0.22388990  1.0
  C  C304  1  0.62975036  0.37439501  0.19474251  1.0
  C  C305  1  0.62289457  0.35873750  0.12556027  1.0
  C  C306  1  0.56741426  0.36247796  0.09467780  1.0
  C  C307  1  0.45776581  0.39864214  0.08630678  1.0
  C  C308  1  0.46427457  0.42178880  0.01869671  1.0
  C  C309  1  0.42185062  0.39641979  0.97244471  1.0
  C  C310  1  0.42546455  0.42032628  0.90929022  1.0
  C  C311  1  0.47142481  0.46988685  0.89156838  1.0
  C  C312  1  0.51364986  0.49399032  0.93774026  1.0
  C  C313  1  0.50963784  0.47107495  0.00066774  1.0
  C  C314  1  0.47139747  0.47068203  0.82063915  1.0
  C  C315  1  0.47343155  0.65321090  0.65505335  1.0
  C  C316  1  0.47133796  0.47448972  0.48839652  1.0
  C  C317  1  0.63644116  0.47296984  0.65631737  1.0
  C  C318  1  0.46930929  0.29124801  0.65461183  1.0
  C  C319  1  0.30693602  0.47214553  0.65333468  1.0
  N  N320  1  0.28722728  0.71367955  0.88539358  1.0
  N  N321  1  0.15711234  0.73222004  0.91357557  1.0
  N  N322  1  0.72397606  0.24300123  0.89954863  1.0
  N  N323  1  0.88026679  0.18821187  0.93525581  1.0
  N  N324  1  0.72156381  0.68820061  0.46689246  1.0
  N  N325  1  0.76216849  0.63565531  0.37306526  1.0
  N  N326  1  0.53722728  0.96367955  0.13539358  1.0
  N  N327  1  0.40711234  0.98222004  0.16357557  1.0
  N  N328  1  0.97397606  0.49300123  0.14954863  1.0
  N  N329  1  0.13026679  0.43821187  0.18525581  1.0
  N  N330  1  0.97156381  0.93820061  0.71689246  1.0
  N  N331  1  0.01216849  0.88565531  0.62306526  1.0
  N  N332  1  0.78722728  0.21367955  0.38539358  1.0
  N  N333  1  0.65711234  0.23222004  0.41357557  1.0
  N  N334  1  0.22397606  0.74300123  0.39954863  1.0
  N  N335  1  0.38026679  0.68821187  0.43525581  1.0
  N  N336  1  0.22156381  0.18820061  0.96689246  1.0
  N  N337  1  0.26216849  0.13565531  0.87306526  1.0
  N  N338  1  0.03722728  0.46367955  0.63539358  1.0
  N  N339  1  0.90711234  0.48222004  0.66357557  1.0
  N  N340  1  0.47397606  0.99300123  0.64954863  1.0
  N  N341  1  0.63026679  0.93821187  0.68525581  1.0
  N  N342  1  0.47156381  0.43820061  0.21689246  1.0
  N  N343  1  0.51216849  0.38565531  0.12306526  1.0
  O  O344  1  0.86143947  0.25028218  0.84589188  1.0
  O  O345  1  0.80550645  0.57579305  0.52071762  1.0
  O  O346  1  0.65369649  0.63615713  0.35451799  1.0
  O  O347  1  0.72136803  0.72258228  0.90484161  1.0
  O  O348  1  0.75972690  0.68161059  0.76249113  1.0
  O  O349  1  0.58037786  0.76539624  0.86443919  1.0
  O  O350  1  0.68074220  0.56663843  0.94348926  1.0
  O  O351  1  0.68295811  0.76682299  0.76190452  1.0
  O  O352  1  0.75846616  0.56771908  0.86580046  1.0
  O  O353  1  0.57942196  0.67910243  0.94271480  1.0
  O  O354  1  0.68203915  0.67815800  0.04708348  1.0
  O  O355  1  0.86332662  0.76516352  0.94535217  1.0
  O  O356  1  0.76074635  0.76373672  0.04788685  1.0
  O  O357  1  0.86234410  0.68066621  0.86685980  1.0
  O  O358  1  0.68425580  0.87834333  0.86549859  1.0
  O  O359  1  0.76200710  0.87762737  0.94457754  1.0
  O  O360  1  0.11143947  0.50028218  0.09589188  1.0
  O  O361  1  0.05550645  0.82579305  0.77071762  1.0
  O  O362  1  0.90369649  0.88615713  0.60451799  1.0
  O  O363  1  0.97136803  0.97258228  0.15484161  1.0
  O  O364  1  0.00972690  0.93161059  0.01249113  1.0
  O  O365  1  0.83037786  0.01539624  0.11443919  1.0
  O  O366  1  0.93074220  0.81663843  0.19348926  1.0
  O  O367  1  0.93295811  0.01682299  0.01190452  1.0
  O  O368  1  0.00846616  0.81771908  0.11580046  1.0
  O  O369  1  0.82942196  0.92910243  0.19271480  1.0
  O  O370  1  0.93203915  0.92815800  0.29708348  1.0
  O  O371  1  0.11332662  0.01516352  0.19535217  1.0
  O  O372  1  0.01074635  0.01373672  0.29788685  1.0
  O  O373  1  0.11234410  0.93066621  0.11685980  1.0
  O  O374  1  0.93425580  0.12834333  0.11549859  1.0
  O  O375  1  0.01200710  0.12762737  0.19457754  1.0
  O  O376  1  0.36143947  0.75028218  0.34589188  1.0
  O  O377  1  0.30550645  0.07579305  0.02071762  1.0
  O  O378  1  0.15369649  0.13615713  0.85451799  1.0
  O  O379  1  0.22136803  0.22258228  0.40484161  1.0
  O  O380  1  0.25972690  0.18161059  0.26249113  1.0
  O  O381  1  0.08037786  0.26539624  0.36443919  1.0
  O  O382  1  0.18074220  0.06663843  0.44348926  1.0
  O  O383  1  0.18295811  0.26682299  0.26190452  1.0
  O  O384  1  0.25846616  0.06771908  0.36580046  1.0
  O  O385  1  0.07942196  0.17910243  0.44271480  1.0
  O  O386  1  0.18203915  0.17815800  0.54708348  1.0
  O  O387  1  0.36332662  0.26516352  0.44535217  1.0
  O  O388  1  0.26074635  0.26373672  0.54788685  1.0
  O  O389  1  0.36234410  0.18066621  0.36685980  1.0
  O  O390  1  0.18425580  0.37834333  0.36549859  1.0
  O  O391  1  0.26200710  0.37762737  0.44457754  1.0
  O  O392  1  0.61143947  0.00028218  0.59589188  1.0
  O  O393  1  0.55550645  0.32579305  0.27071762  1.0
  O  O394  1  0.40369649  0.38615713  0.10451799  1.0
  O  O395  1  0.47136803  0.47258228  0.65484161  1.0
  O  O396  1  0.50972690  0.43161059  0.51249113  1.0
  O  O397  1  0.33037786  0.51539624  0.61443919  1.0
  O  O398  1  0.43074220  0.31663843  0.69348926  1.0
  O  O399  1  0.43295811  0.51682299  0.51190452  1.0
  O  O400  1  0.50846616  0.31771908  0.61580046  1.0
  O  O401  1  0.32942196  0.42910243  0.69271480  1.0
  O  O402  1  0.43203915  0.42815800  0.79708348  1.0
  O  O403  1  0.61332662  0.51516352  0.69535217  1.0
  O  O404  1  0.51074635  0.51373672  0.79788685  1.0
  O  O405  1  0.61234410  0.43066621  0.61685980  1.0
  O  O406  1  0.43425580  0.62834333  0.61549859  1.0
  O  O407  1  0.51200710  0.62762737  0.69457754  1.0
  F  F408  1  0.47490957  0.66009917  0.00074962  1.0
  F  F409  1  0.48843891  0.78375685  0.80454792  1.0
  F  F410  1  0.08880532  0.60634566  0.90766587  1.0
  F  F411  1  0.96346953  0.60064126  0.90605656  1.0
  F  F412  1  0.08159179  0.85315596  0.91389489  1.0
  F  F413  1  0.80618998  0.46723350  0.83437885  1.0
  F  F414  1  0.66736728  0.14210862  0.96830257  1.0
  F  F415  1  0.63795479  0.00657704  0.97135517  1.0
  F  F416  1  0.63524292  0.31228645  0.96672575  1.0
  F  F417  1  0.62831949  0.45083713  0.96964078  1.0
  F  F418  1  0.83321752  0.73691569  0.66381300  1.0
  F  F419  1  0.83309323  0.72576960  0.53797258  1.0
  F  F420  1  0.61100396  0.69067824  0.53762882  1.0
  F  F421  1  0.61005623  0.71428875  0.66361661  1.0
  F  F422  1  0.80035610  0.74775304  0.29345665  1.0
  F  F423  1  0.80913522  0.79019681  0.17228077  1.0
  F  F424  1  0.72490957  0.91009917  0.25074962  1.0
  F  F425  1  0.73843891  0.03375685  0.05454792  1.0
  F  F426  1  0.33880532  0.85634566  0.15766587  1.0
  F  F427  1  0.21346953  0.85064126  0.15605656  1.0
  F  F428  1  0.33159179  0.10315596  0.16389489  1.0
  F  F429  1  0.05618998  0.71723350  0.08437885  1.0
  F  F430  1  0.91736728  0.39210862  0.21830257  1.0
  F  F431  1  0.88795479  0.25657704  0.22135517  1.0
  F  F432  1  0.88524292  0.56228645  0.21672575  1.0
  F  F433  1  0.87831949  0.70083713  0.21964078  1.0
  F  F434  1  0.08321752  0.98691569  0.91381300  1.0
  F  F435  1  0.08309323  0.97576960  0.78797258  1.0
  F  F436  1  0.86100396  0.94067824  0.78762882  1.0
  F  F437  1  0.86005623  0.96428875  0.91361661  1.0
  F  F438  1  0.05035610  0.99775304  0.54345665  1.0
  F  F439  1  0.05913522  0.04019681  0.42228077  1.0
  F  F440  1  0.97490957  0.16009917  0.50074962  1.0
  F  F441  1  0.98843891  0.28375685  0.30454792  1.0
  F  F442  1  0.58880532  0.10634566  0.40766587  1.0
  F  F443  1  0.46346953  0.10064126  0.40605656  1.0
  F  F444  1  0.58159179  0.35315596  0.41389489  1.0
  F  F445  1  0.30618998  0.96723350  0.33437885  1.0
  F  F446  1  0.16736728  0.64210862  0.46830257  1.0
  F  F447  1  0.13795479  0.50657704  0.47135517  1.0
  F  F448  1  0.13524292  0.81228645  0.46672575  1.0
  F  F449  1  0.12831949  0.95083713  0.46964078  1.0
  F  F450  1  0.33321752  0.23691569  0.16381300  1.0
  F  F451  1  0.33309323  0.22576960  0.03797258  1.0
  F  F452  1  0.11100396  0.19067824  0.03762882  1.0
  F  F453  1  0.11005623  0.21428875  0.16361661  1.0
  F  F454  1  0.30035610  0.24775304  0.79345665  1.0
  F  F455  1  0.30913522  0.29019681  0.67228077  1.0
  F  F456  1  0.22490957  0.41009917  0.75074962  1.0
  F  F457  1  0.23843891  0.53375685  0.55454792  1.0
  F  F458  1  0.83880532  0.35634566  0.65766587  1.0
  F  F459  1  0.71346953  0.35064126  0.65605656  1.0
  F  F460  1  0.83159179  0.60315596  0.66389489  1.0
  F  F461  1  0.55618998  0.21723350  0.58437885  1.0
  F  F462  1  0.41736728  0.89210862  0.71830257  1.0
  F  F463  1  0.38795479  0.75657704  0.72135517  1.0
  F  F464  1  0.38524292  0.06228645  0.71672575  1.0
  F  F465  1  0.37831949  0.20083713  0.71964078  1.0
  F  F466  1  0.58321752  0.48691569  0.41381300  1.0
  F  F467  1  0.58309323  0.47576960  0.28797258  1.0
  F  F468  1  0.36100396  0.44067824  0.28762882  1.0
  F  F469  1  0.36005623  0.46428875  0.41361661  1.0
  F  F470  1  0.55035610  0.49775304  0.04345665  1.0
  F  F471  1  0.55913522  0.54019681  0.92228077  1.0
