# generated using pymatgen
data_Zn4H26C57N3Cl(O7F5)2
_symmetry_space_group_name_H-M   'P 1'
_cell_length_a   21.59522105
_cell_length_b   21.31264346
_cell_length_c   21.44585859
_cell_angle_alpha   91.25702574
_cell_angle_beta   90.31848870
_cell_angle_gamma   90.14446786
_symmetry_Int_Tables_number   1
_chemical_formula_structural   Zn4H26C57N3Cl(O7F5)2
_chemical_formula_sum   'Zn16 H104 C228 N12 Cl4 O56 F40'
_cell_volume   9867.92081675
_cell_formula_units_Z   4
loop_
 _symmetry_equiv_pos_site_id
 _symmetry_equiv_pos_as_xyz
  1  'x, y, z'
loop_
 _atom_site_type_symbol
 _atom_site_label
 _atom_site_symmetry_multiplicity
 _atom_site_fract_x
 _atom_site_fract_y
 _atom_site_fract_z
 _atom_site_occupancy
  Zn  Zn0  1  0.78102670  0.69555408  0.85016110  1.0
  Zn  Zn1  1  0.67726189  0.80047813  0.85240887  1.0
  Zn  Zn2  1  0.67769958  0.69521322  0.95453820  1.0
  Zn  Zn3  1  0.78150123  0.80065609  0.95704083  1.0
  Zn  Zn4  1  0.03102670  0.94555408  0.10016110  1.0
  Zn  Zn5  1  0.92726189  0.05047813  0.10240887  1.0
  Zn  Zn6  1  0.92769958  0.94521322  0.20453820  1.0
  Zn  Zn7  1  0.03150123  0.05065609  0.20704083  1.0
  Zn  Zn8  1  0.28102670  0.19555408  0.35016110  1.0
  Zn  Zn9  1  0.17726189  0.30047813  0.35240887  1.0
  Zn  Zn10  1  0.17769958  0.19521322  0.45453820  1.0
  Zn  Zn11  1  0.28150123  0.30065609  0.45704083  1.0
  Zn  Zn12  1  0.53102670  0.44555408  0.60016110  1.0
  Zn  Zn13  1  0.42726189  0.55047813  0.60240887  1.0
  Zn  Zn14  1  0.42769958  0.44521322  0.70453820  1.0
  Zn  Zn15  1  0.53150123  0.55065609  0.70704083  1.0
  H  H16  1  0.38484342  0.63978190  0.91446269  1.0
  H  H17  1  0.28913469  0.80346688  0.83022277  1.0
  H  H18  1  0.07865967  0.75488228  0.80071808  1.0
  H  H19  1  0.96674328  0.76566050  0.80501792  1.0
  H  H20  1  0.97249618  0.72797959  0.00189109  1.0
  H  H21  1  0.26249926  0.64455700  0.02910201  1.0
  H  H22  1  0.33149543  0.68234810  0.01380431  1.0
  H  H23  1  0.30979087  0.61273359  0.96985436  1.0
  H  H24  1  0.11576935  0.63369910  0.95476671  1.0
  H  H25  1  0.16043010  0.65645510  0.02176602  1.0
  H  H26  1  0.18692653  0.59871193  0.96687350  1.0
  H  H27  1  0.73788964  0.49039088  0.99565984  1.0
  H  H28  1  0.72898049  0.28523138  0.95567838  1.0
  H  H29  1  0.76778321  0.00365050  0.81851576  1.0
  H  H30  1  0.81041195  0.69071323  0.66442293  1.0
  H  H31  1  0.80626596  0.67950450  0.55064360  1.0
  H  H32  1  0.63979104  0.79192802  0.54895194  1.0
  H  H33  1  0.64760261  0.80762673  0.66072878  1.0
  H  H34  1  0.76494064  0.64114956  0.45738019  1.0
  H  H35  1  0.76816915  0.64325694  0.34450509  1.0
  H  H36  1  0.72037183  0.63704870  0.24672625  1.0
  H  H37  1  0.72386503  0.64609758  0.13366591  1.0
  H  H38  1  0.73269284  0.84790447  0.15364448  1.0
  H  H39  1  0.73111478  0.83917740  0.26636867  1.0
  H  H40  1  0.67437190  0.82191144  0.34927943  1.0
  H  H41  1  0.67753211  0.82315501  0.46049775  1.0
  H  H42  1  0.63484342  0.88978190  0.16446269  1.0
  H  H43  1  0.53913469  0.05346688  0.08022277  1.0
  H  H44  1  0.32865967  0.00488228  0.05071808  1.0
  H  H45  1  0.21674328  0.01566050  0.05501792  1.0
  H  H46  1  0.22249618  0.97797959  0.25189109  1.0
  H  H47  1  0.51249926  0.89455700  0.27910201  1.0
  H  H48  1  0.58149543  0.93234810  0.26380431  1.0
  H  H49  1  0.55979087  0.86273359  0.21985436  1.0
  H  H50  1  0.36576935  0.88369910  0.20476671  1.0
  H  H51  1  0.41043010  0.90645510  0.27176602  1.0
  H  H52  1  0.43692653  0.84871193  0.21687350  1.0
  H  H53  1  0.98788964  0.74039088  0.24565984  1.0
  H  H54  1  0.97898049  0.53523138  0.20567838  1.0
  H  H55  1  0.01778321  0.25365050  0.06851576  1.0
  H  H56  1  0.06041195  0.94071323  0.91442293  1.0
  H  H57  1  0.05626596  0.92950450  0.80064360  1.0
  H  H58  1  0.88979104  0.04192802  0.79895194  1.0
  H  H59  1  0.89760261  0.05762673  0.91072878  1.0
  H  H60  1  0.01494064  0.89114956  0.70738019  1.0
  H  H61  1  0.01816915  0.89325694  0.59450509  1.0
  H  H62  1  0.97037183  0.88704870  0.49672625  1.0
  H  H63  1  0.97386503  0.89609758  0.38366591  1.0
  H  H64  1  0.98269284  0.09790447  0.40364448  1.0
  H  H65  1  0.98111478  0.08917740  0.51636867  1.0
  H  H66  1  0.92437190  0.07191144  0.59927943  1.0
  H  H67  1  0.92753211  0.07315501  0.71049775  1.0
  H  H68  1  0.88484342  0.13978190  0.41446269  1.0
  H  H69  1  0.78913469  0.30346688  0.33022277  1.0
  H  H70  1  0.57865967  0.25488228  0.30071808  1.0
  H  H71  1  0.46674328  0.26566050  0.30501792  1.0
  H  H72  1  0.47249618  0.22797959  0.50189109  1.0
  H  H73  1  0.76249926  0.14455700  0.52910201  1.0
  H  H74  1  0.83149543  0.18234810  0.51380431  1.0
  H  H75  1  0.80979087  0.11273359  0.46985436  1.0
  H  H76  1  0.61576935  0.13369910  0.45476671  1.0
  H  H77  1  0.66043010  0.15645510  0.52176602  1.0
  H  H78  1  0.68692653  0.09871193  0.46687350  1.0
  H  H79  1  0.23788964  0.99039088  0.49565984  1.0
  H  H80  1  0.22898049  0.78523138  0.45567838  1.0
  H  H81  1  0.26778321  0.50365050  0.31851576  1.0
  H  H82  1  0.31041195  0.19071323  0.16442293  1.0
  H  H83  1  0.30626596  0.17950450  0.05064360  1.0
  H  H84  1  0.13979104  0.29192802  0.04895194  1.0
  H  H85  1  0.14760261  0.30762673  0.16072878  1.0
  H  H86  1  0.26494064  0.14114956  0.95738019  1.0
  H  H87  1  0.26816915  0.14325694  0.84450509  1.0
  H  H88  1  0.22037183  0.13704870  0.74672625  1.0
  H  H89  1  0.22386503  0.14609758  0.63366591  1.0
  H  H90  1  0.23269284  0.34790447  0.65364448  1.0
  H  H91  1  0.23111478  0.33917740  0.76636867  1.0
  H  H92  1  0.17437190  0.32191144  0.84927943  1.0
  H  H93  1  0.17753211  0.32315501  0.96049775  1.0
  H  H94  1  0.13484342  0.38978190  0.66446269  1.0
  H  H95  1  0.03913469  0.55346688  0.58022277  1.0
  H  H96  1  0.82865967  0.50488228  0.55071808  1.0
  H  H97  1  0.71674328  0.51566050  0.55501792  1.0
  H  H98  1  0.72249618  0.47797959  0.75189109  1.0
  H  H99  1  0.01249926  0.39455700  0.77910201  1.0
  H  H100  1  0.08149543  0.43234810  0.76380431  1.0
  H  H101  1  0.05979087  0.36273359  0.71985436  1.0
  H  H102  1  0.86576935  0.38369910  0.70476671  1.0
  H  H103  1  0.91043010  0.40645510  0.77176602  1.0
  H  H104  1  0.93692653  0.34871193  0.71687350  1.0
  H  H105  1  0.48788964  0.24039088  0.74565984  1.0
  H  H106  1  0.47898049  0.03523138  0.70567838  1.0
  H  H107  1  0.51778321  0.75365050  0.56851576  1.0
  H  H108  1  0.56041195  0.44071323  0.41442293  1.0
  H  H109  1  0.55626596  0.42950450  0.30064360  1.0
  H  H110  1  0.38979104  0.54192802  0.29895194  1.0
  H  H111  1  0.39760261  0.55762673  0.41072878  1.0
  H  H112  1  0.51494064  0.39114956  0.20738019  1.0
  H  H113  1  0.51816915  0.39325694  0.09450509  1.0
  H  H114  1  0.47037183  0.38704870  0.99672625  1.0
  H  H115  1  0.47386503  0.39609758  0.88366591  1.0
  H  H116  1  0.48269284  0.59790447  0.90364448  1.0
  H  H117  1  0.48111478  0.58917740  0.01636867  1.0
  H  H118  1  0.42437190  0.57191144  0.09927943  1.0
  H  H119  1  0.42753211  0.57315501  0.21049775  1.0
  C  C120  1  0.49909221  0.74717703  0.90309312  1.0
  C  C121  1  0.46908965  0.69088169  0.91231521  1.0
  C  C122  1  0.40455325  0.68639697  0.91023945  1.0
  C  C123  1  0.36695427  0.73933355  0.90300099  1.0
  C  C124  1  0.39887265  0.79651482  0.89440089  1.0
  C  C125  1  0.46356241  0.80035002  0.89364616  1.0
  C  C126  1  0.29784519  0.73550989  0.90293880  1.0
  C  C127  1  0.26430034  0.77365681  0.86233536  1.0
  C  C128  1  0.19936510  0.77788047  0.86268890  1.0
  C  C129  1  0.16240277  0.73849746  0.89953437  1.0
  C  C130  1  0.09282252  0.74333282  0.90059242  1.0
  C  C131  1  0.05702500  0.75157807  0.84621057  1.0
  C  C132  1  0.99218758  0.75651403  0.84791955  1.0
  C  C133  1  0.96028235  0.74855332  0.90381999  1.0
  C  C134  1  0.99417039  0.73824761  0.95781095  1.0
  C  C135  1  0.05879224  0.73944467  0.95612686  1.0
  C  C136  1  0.19568130  0.69439469  0.93644154  1.0
  C  C137  1  0.26219618  0.69662289  0.94203588  1.0
  C  C138  1  0.29333423  0.65673578  0.99093504  1.0
  C  C139  1  0.16252825  0.64355870  0.97212699  1.0
  C  C140  1  0.72933075  0.51395010  0.89825234  1.0
  C  C141  1  0.73214885  0.47253921  0.94797428  1.0
  C  C142  1  0.72789629  0.40767767  0.93664685  1.0
  C  C143  1  0.71996658  0.38275091  0.87632894  1.0
  C  C144  1  0.71682749  0.42502644  0.82728383  1.0
  C  C145  1  0.72162259  0.48960728  0.83816583  1.0
  C  C146  1  0.71458912  0.31425489  0.86212437  1.0
  C  C147  1  0.72695013  0.11392835  0.92927797  1.0
  C  C148  1  0.74899037  0.08688520  0.87333736  1.0
  C  C149  1  0.75007806  0.02190661  0.86280360  1.0
  C  C150  1  0.72945324  0.98136254  0.90872654  1.0
  C  C151  1  0.70756825  0.00733000  0.96440965  1.0
  C  C152  1  0.70638918  0.07239477  0.97437423  1.0
  C  C153  1  0.72835751  0.74815687  0.67102198  1.0
  C  C154  1  0.77268769  0.71257638  0.63901083  1.0
  C  C155  1  0.76975402  0.70601153  0.57389956  1.0
  C  C156  1  0.72254750  0.73461252  0.53923830  1.0
  C  C157  1  0.67782106  0.76916496  0.57304169  1.0
  C  C158  1  0.68112147  0.77711927  0.63780977  1.0
  C  C159  1  0.72123186  0.73205473  0.47007433  1.0
  C  C160  1  0.74561421  0.68191126  0.43464681  1.0
  C  C161  1  0.74672630  0.68272649  0.36900746  1.0
  C  C162  1  0.72242857  0.73324909  0.33590398  1.0
  C  C163  1  0.72559870  0.73716014  0.26704210  1.0
  C  C164  1  0.72448177  0.68368740  0.22742252  1.0
  C  C165  1  0.72678838  0.68871303  0.16229827  1.0
  C  C166  1  0.73039950  0.74781070  0.13541845  1.0
  C  C167  1  0.73106741  0.80147758  0.17376268  1.0
  C  C168  1  0.72939080  0.79594989  0.23843680  1.0
  C  C169  1  0.69574848  0.78192961  0.37150546  1.0
  C  C170  1  0.69626648  0.78192629  0.43661142  1.0
  C  C171  1  0.73008187  0.74784884  0.06594094  1.0
  C  C172  1  0.72941488  0.91143416  0.90721195  1.0
  C  C173  1  0.72866033  0.74810256  0.74049951  1.0
  C  C174  1  0.89128499  0.74838007  0.90373593  1.0
  C  C175  1  0.72934296  0.58387822  0.89983149  1.0
  C  C176  1  0.56808975  0.74752638  0.90330247  1.0
  C  C177  1  0.74909221  0.99717703  0.15309312  1.0
  C  C178  1  0.71908965  0.94088169  0.16231521  1.0
  C  C179  1  0.65455325  0.93639697  0.16023945  1.0
  C  C180  1  0.61695427  0.98933355  0.15300099  1.0
  C  C181  1  0.64887265  0.04651482  0.14440089  1.0
  C  C182  1  0.71356241  0.05035002  0.14364616  1.0
  C  C183  1  0.54784519  0.98550989  0.15293880  1.0
  C  C184  1  0.51430034  0.02365681  0.11233536  1.0
  C  C185  1  0.44936510  0.02788047  0.11268890  1.0
  C  C186  1  0.41240277  0.98849746  0.14953437  1.0
  C  C187  1  0.34282252  0.99333282  0.15059242  1.0
  C  C188  1  0.30702500  0.00157807  0.09621057  1.0
  C  C189  1  0.24218758  0.00651403  0.09791955  1.0
  C  C190  1  0.21028235  0.99855332  0.15381999  1.0
  C  C191  1  0.24417039  0.98824761  0.20781095  1.0
  C  C192  1  0.30879224  0.98944467  0.20612686  1.0
  C  C193  1  0.44568130  0.94439469  0.18644154  1.0
  C  C194  1  0.51219618  0.94662289  0.19203588  1.0
  C  C195  1  0.54333423  0.90673578  0.24093504  1.0
  C  C196  1  0.41252825  0.89355870  0.22212699  1.0
  C  C197  1  0.97933075  0.76395010  0.14825234  1.0
  C  C198  1  0.98214885  0.72253921  0.19797428  1.0
  C  C199  1  0.97789629  0.65767767  0.18664685  1.0
  C  C200  1  0.96996658  0.63275091  0.12632894  1.0
  C  C201  1  0.96682749  0.67502644  0.07728383  1.0
  C  C202  1  0.97162259  0.73960728  0.08816583  1.0
  C  C203  1  0.96458912  0.56425489  0.11212437  1.0
  C  C204  1  0.97695013  0.36392835  0.17927797  1.0
  C  C205  1  0.99899037  0.33688520  0.12333736  1.0
  C  C206  1  0.00007806  0.27190661  0.11280360  1.0
  C  C207  1  0.97945324  0.23136254  0.15872654  1.0
  C  C208  1  0.95756825  0.25733000  0.21440965  1.0
  C  C209  1  0.95638918  0.32239477  0.22437423  1.0
  C  C210  1  0.97835751  0.99815687  0.92102198  1.0
  C  C211  1  0.02268769  0.96257638  0.88901083  1.0
  C  C212  1  0.01975402  0.95601153  0.82389956  1.0
  C  C213  1  0.97254750  0.98461252  0.78923830  1.0
  C  C214  1  0.92782106  0.01916496  0.82304169  1.0
  C  C215  1  0.93112147  0.02711927  0.88780977  1.0
  C  C216  1  0.97123186  0.98205473  0.72007433  1.0
  C  C217  1  0.99561421  0.93191126  0.68464681  1.0
  C  C218  1  0.99672630  0.93272649  0.61900746  1.0
  C  C219  1  0.97242857  0.98324909  0.58590398  1.0
  C  C220  1  0.97559870  0.98716014  0.51704210  1.0
  C  C221  1  0.97448177  0.93368740  0.47742252  1.0
  C  C222  1  0.97678838  0.93871303  0.41229827  1.0
  C  C223  1  0.98039950  0.99781070  0.38541845  1.0
  C  C224  1  0.98106741  0.05147758  0.42376268  1.0
  C  C225  1  0.97939080  0.04594989  0.48843680  1.0
  C  C226  1  0.94574848  0.03192961  0.62150546  1.0
  C  C227  1  0.94626648  0.03192629  0.68661142  1.0
  C  C228  1  0.98008187  0.99784884  0.31594094  1.0
  C  C229  1  0.97941488  0.16143416  0.15721195  1.0
  C  C230  1  0.97866033  0.99810256  0.99049951  1.0
  C  C231  1  0.14128499  0.99838007  0.15373593  1.0
  C  C232  1  0.97934296  0.83387822  0.14983149  1.0
  C  C233  1  0.81808975  0.99752638  0.15330247  1.0
  C  C234  1  0.99909221  0.24717703  0.40309312  1.0
  C  C235  1  0.96908965  0.19088169  0.41231521  1.0
  C  C236  1  0.90455325  0.18639697  0.41023945  1.0
  C  C237  1  0.86695427  0.23933355  0.40300099  1.0
  C  C238  1  0.89887265  0.29651482  0.39440089  1.0
  C  C239  1  0.96356241  0.30035002  0.39364616  1.0
  C  C240  1  0.79784519  0.23550989  0.40293880  1.0
  C  C241  1  0.76430034  0.27365681  0.36233536  1.0
  C  C242  1  0.69936510  0.27788047  0.36268890  1.0
  C  C243  1  0.66240277  0.23849746  0.39953437  1.0
  C  C244  1  0.59282252  0.24333282  0.40059242  1.0
  C  C245  1  0.55702500  0.25157807  0.34621057  1.0
  C  C246  1  0.49218758  0.25651403  0.34791955  1.0
  C  C247  1  0.46028235  0.24855332  0.40381999  1.0
  C  C248  1  0.49417039  0.23824761  0.45781095  1.0
  C  C249  1  0.55879224  0.23944467  0.45612686  1.0
  C  C250  1  0.69568130  0.19439469  0.43644154  1.0
  C  C251  1  0.76219618  0.19662289  0.44203588  1.0
  C  C252  1  0.79333423  0.15673578  0.49093504  1.0
  C  C253  1  0.66252825  0.14355870  0.47212699  1.0
  C  C254  1  0.22933075  0.01395010  0.39825234  1.0
  C  C255  1  0.23214885  0.97253921  0.44797428  1.0
  C  C256  1  0.22789629  0.90767767  0.43664685  1.0
  C  C257  1  0.21996658  0.88275091  0.37632894  1.0
  C  C258  1  0.21682749  0.92502644  0.32728383  1.0
  C  C259  1  0.22162259  0.98960728  0.33816583  1.0
  C  C260  1  0.21458912  0.81425489  0.36212437  1.0
  C  C261  1  0.22695013  0.61392835  0.42927797  1.0
  C  C262  1  0.24899037  0.58688520  0.37333736  1.0
  C  C263  1  0.25007806  0.52190661  0.36280360  1.0
  C  C264  1  0.22945324  0.48136254  0.40872654  1.0
  C  C265  1  0.20756825  0.50733000  0.46440965  1.0
  C  C266  1  0.20638918  0.57239477  0.47437423  1.0
  C  C267  1  0.22835751  0.24815687  0.17102198  1.0
  C  C268  1  0.27268769  0.21257638  0.13901083  1.0
  C  C269  1  0.26975402  0.20601153  0.07389956  1.0
  C  C270  1  0.22254750  0.23461252  0.03923830  1.0
  C  C271  1  0.17782106  0.26916496  0.07304169  1.0
  C  C272  1  0.18112147  0.27711927  0.13780977  1.0
  C  C273  1  0.22123186  0.23205473  0.97007433  1.0
  C  C274  1  0.24561421  0.18191126  0.93464681  1.0
  C  C275  1  0.24672630  0.18272649  0.86900746  1.0
  C  C276  1  0.22242857  0.23324909  0.83590398  1.0
  C  C277  1  0.22559870  0.23716014  0.76704210  1.0
  C  C278  1  0.22448177  0.18368740  0.72742252  1.0
  C  C279  1  0.22678838  0.18871303  0.66229827  1.0
  C  C280  1  0.23039950  0.24781070  0.63541845  1.0
  C  C281  1  0.23106741  0.30147758  0.67376268  1.0
  C  C282  1  0.22939080  0.29594989  0.73843680  1.0
  C  C283  1  0.19574848  0.28192961  0.87150546  1.0
  C  C284  1  0.19626648  0.28192629  0.93661142  1.0
  C  C285  1  0.23008187  0.24784884  0.56594094  1.0
  C  C286  1  0.22941488  0.41143416  0.40721195  1.0
  C  C287  1  0.22866033  0.24810256  0.24049951  1.0
  C  C288  1  0.39128499  0.24838007  0.40373593  1.0
  C  C289  1  0.22934296  0.08387822  0.39983149  1.0
  C  C290  1  0.06808975  0.24752638  0.40330247  1.0
  C  C291  1  0.24909221  0.49717703  0.65309312  1.0
  C  C292  1  0.21908965  0.44088169  0.66231521  1.0
  C  C293  1  0.15455325  0.43639697  0.66023945  1.0
  C  C294  1  0.11695427  0.48933355  0.65300099  1.0
  C  C295  1  0.14887265  0.54651482  0.64440089  1.0
  C  C296  1  0.21356241  0.55035002  0.64364616  1.0
  C  C297  1  0.04784519  0.48550989  0.65293880  1.0
  C  C298  1  0.01430034  0.52365681  0.61233536  1.0
  C  C299  1  0.94936510  0.52788047  0.61268890  1.0
  C  C300  1  0.91240277  0.48849746  0.64953437  1.0
  C  C301  1  0.84282252  0.49333282  0.65059242  1.0
  C  C302  1  0.80702500  0.50157807  0.59621057  1.0
  C  C303  1  0.74218758  0.50651403  0.59791955  1.0
  C  C304  1  0.71028235  0.49855332  0.65381999  1.0
  C  C305  1  0.74417039  0.48824761  0.70781095  1.0
  C  C306  1  0.80879224  0.48944467  0.70612686  1.0
  C  C307  1  0.94568130  0.44439469  0.68644154  1.0
  C  C308  1  0.01219618  0.44662289  0.69203588  1.0
  C  C309  1  0.04333423  0.40673578  0.74093504  1.0
  C  C310  1  0.91252825  0.39355870  0.72212699  1.0
  C  C311  1  0.47933075  0.26395010  0.64825234  1.0
  C  C312  1  0.48214885  0.22253921  0.69797428  1.0
  C  C313  1  0.47789629  0.15767767  0.68664685  1.0
  C  C314  1  0.46996658  0.13275091  0.62632894  1.0
  C  C315  1  0.46682749  0.17502644  0.57728383  1.0
  C  C316  1  0.47162259  0.23960728  0.58816583  1.0
  C  C317  1  0.46458912  0.06425489  0.61212437  1.0
  C  C318  1  0.47695013  0.86392835  0.67927797  1.0
  C  C319  1  0.49899037  0.83688520  0.62333736  1.0
  C  C320  1  0.50007806  0.77190661  0.61280360  1.0
  C  C321  1  0.47945324  0.73136254  0.65872654  1.0
  C  C322  1  0.45756825  0.75733000  0.71440965  1.0
  C  C323  1  0.45638918  0.82239477  0.72437423  1.0
  C  C324  1  0.47835751  0.49815687  0.42102198  1.0
  C  C325  1  0.52268769  0.46257638  0.38901083  1.0
  C  C326  1  0.51975402  0.45601153  0.32389956  1.0
  C  C327  1  0.47254750  0.48461252  0.28923830  1.0
  C  C328  1  0.42782106  0.51916496  0.32304169  1.0
  C  C329  1  0.43112147  0.52711927  0.38780977  1.0
  C  C330  1  0.47123186  0.48205473  0.22007433  1.0
  C  C331  1  0.49561421  0.43191126  0.18464681  1.0
  C  C332  1  0.49672630  0.43272649  0.11900746  1.0
  C  C333  1  0.47242857  0.48324909  0.08590398  1.0
  C  C334  1  0.47559870  0.48716014  0.01704210  1.0
  C  C335  1  0.47448177  0.43368740  0.97742252  1.0
  C  C336  1  0.47678838  0.43871303  0.91229827  1.0
  C  C337  1  0.48039950  0.49781070  0.88541845  1.0
  C  C338  1  0.48106741  0.55147758  0.92376268  1.0
  C  C339  1  0.47939080  0.54594989  0.98843680  1.0
  C  C340  1  0.44574848  0.53192961  0.12150546  1.0
  C  C341  1  0.44626648  0.53192629  0.18661142  1.0
  C  C342  1  0.48008187  0.49784884  0.81594094  1.0
  C  C343  1  0.47941488  0.66143416  0.65721195  1.0
  C  C344  1  0.47866033  0.49810256  0.49049951  1.0
  C  C345  1  0.64128499  0.49838007  0.65373593  1.0
  C  C346  1  0.47934296  0.33387822  0.64983149  1.0
  C  C347  1  0.31808975  0.49752638  0.65330247  1.0
  N  N348  1  0.72011382  0.27291491  0.91061434  1.0
  N  N349  1  0.71675105  0.21077393  0.89675880  1.0
  N  N350  1  0.72726597  0.17921010  0.94374289  1.0
  N  N351  1  0.97011382  0.52291491  0.16061434  1.0
  N  N352  1  0.96675105  0.46077393  0.14675880  1.0
  N  N353  1  0.97726597  0.42921010  0.19374289  1.0
  N  N354  1  0.22011382  0.77291491  0.41061434  1.0
  N  N355  1  0.21675105  0.71077393  0.39675880  1.0
  N  N356  1  0.22726597  0.67921010  0.44374289  1.0
  N  N357  1  0.47011382  0.02291491  0.66061434  1.0
  N  N358  1  0.46675105  0.96077393  0.64675880  1.0
  N  N359  1  0.47726597  0.92921010  0.69374289  1.0
  Cl  Cl360  1  0.17028131  0.83750677  0.81694782  1.0
  Cl  Cl361  1  0.42028131  0.08750677  0.06694782  1.0
  Cl  Cl362  1  0.67028131  0.33750677  0.31694782  1.0
  Cl  Cl363  1  0.92028131  0.58750677  0.56694782  1.0
  O  O364  1  0.70563629  0.29654559  0.80793348  1.0
  O  O365  1  0.72937274  0.74797555  0.90353737  1.0
  O  O366  1  0.76688030  0.70954068  0.76298766  1.0
  O  O367  1  0.59045304  0.78629715  0.86585029  1.0
  O  O368  1  0.69139066  0.60721900  0.93870445  1.0
  O  O369  1  0.69064459  0.78662779  0.76463952  1.0
  O  O370  1  0.76730473  0.60746919  0.86201874  1.0
  O  O371  1  0.59077398  0.70895916  0.94088434  1.0
  O  O372  1  0.69185067  0.70913187  0.04234149  1.0
  O  O373  1  0.86830538  0.78693183  0.94296960  1.0
  O  O374  1  0.76811383  0.78660114  0.04418038  1.0
  O  O375  1  0.86795700  0.70971343  0.86444480  1.0
  O  O376  1  0.69110531  0.88854135  0.86827641  1.0
  O  O377  1  0.76768941  0.88867187  0.94514932  1.0
  O  O378  1  0.95563629  0.54654559  0.05793348  1.0
  O  O379  1  0.97937274  0.99797555  0.15353737  1.0
  O  O380  1  0.01688030  0.95954068  0.01298766  1.0
  O  O381  1  0.84045304  0.03629715  0.11585029  1.0
  O  O382  1  0.94139066  0.85721900  0.18870445  1.0
  O  O383  1  0.94064459  0.03662779  0.01463952  1.0
  O  O384  1  0.01730473  0.85746919  0.11201874  1.0
  O  O385  1  0.84077398  0.95895916  0.19088434  1.0
  O  O386  1  0.94185067  0.95913187  0.29234149  1.0
  O  O387  1  0.11830538  0.03693183  0.19296960  1.0
  O  O388  1  0.01811383  0.03660114  0.29418038  1.0
  O  O389  1  0.11795700  0.95971343  0.11444480  1.0
  O  O390  1  0.94110531  0.13854135  0.11827641  1.0
  O  O391  1  0.01768941  0.13867187  0.19514932  1.0
  O  O392  1  0.20563629  0.79654559  0.30793348  1.0
  O  O393  1  0.22937274  0.24797555  0.40353737  1.0
  O  O394  1  0.26688030  0.20954068  0.26298766  1.0
  O  O395  1  0.09045304  0.28629715  0.36585029  1.0
  O  O396  1  0.19139066  0.10721900  0.43870445  1.0
  O  O397  1  0.19064459  0.28662779  0.26463952  1.0
  O  O398  1  0.26730473  0.10746919  0.36201874  1.0
  O  O399  1  0.09077398  0.20895916  0.44088434  1.0
  O  O400  1  0.19185067  0.20913187  0.54234149  1.0
  O  O401  1  0.36830538  0.28693183  0.44296960  1.0
  O  O402  1  0.26811383  0.28660114  0.54418038  1.0
  O  O403  1  0.36795700  0.20971343  0.36444480  1.0
  O  O404  1  0.19110531  0.38854135  0.36827641  1.0
  O  O405  1  0.26768941  0.38867187  0.44514932  1.0
  O  O406  1  0.45563629  0.04654559  0.55793348  1.0
  O  O407  1  0.47937274  0.49797555  0.65353737  1.0
  O  O408  1  0.51688030  0.45954068  0.51298766  1.0
  O  O409  1  0.34045304  0.53629715  0.61585029  1.0
  O  O410  1  0.44139066  0.35721900  0.68870445  1.0
  O  O411  1  0.44064459  0.53662779  0.51463952  1.0
  O  O412  1  0.51730473  0.35746919  0.61201874  1.0
  O  O413  1  0.34077398  0.45895916  0.69088434  1.0
  O  O414  1  0.44185067  0.45913187  0.79234149  1.0
  O  O415  1  0.61830538  0.53693183  0.69296960  1.0
  O  O416  1  0.51811383  0.53660114  0.79418038  1.0
  O  O417  1  0.61795700  0.45971343  0.61444480  1.0
  O  O418  1  0.44110531  0.63854135  0.61827641  1.0
  O  O419  1  0.51768941  0.63867187  0.69514932  1.0
  F  F420  1  0.50129144  0.63836981  0.92247758  1.0
  F  F421  1  0.48969246  0.85596524  0.88188532  1.0
  F  F422  1  0.36718039  0.84986272  0.88596548  1.0
  F  F423  1  0.08792184  0.73558319  0.01141527  1.0
  F  F424  1  0.71944691  0.52822958  0.78962447  1.0
  F  F425  1  0.70950744  0.40535776  0.76791249  1.0
  F  F426  1  0.68539343  0.09494381  0.02922849  1.0
  F  F427  1  0.68780370  0.96993417  0.00982347  1.0
  F  F428  1  0.77122479  0.12300766  0.82817264  1.0
  F  F429  1  0.73199852  0.36989679  0.98566814  1.0
  F  F430  1  0.75129144  0.88836981  0.17247758  1.0
  F  F431  1  0.73969246  0.10596524  0.13188532  1.0
  F  F432  1  0.61718039  0.09986272  0.13596548  1.0
  F  F433  1  0.33792184  0.98558319  0.26141527  1.0
  F  F434  1  0.96944691  0.77822958  0.03962447  1.0
  F  F435  1  0.95950744  0.65535776  0.01791249  1.0
  F  F436  1  0.93539343  0.34494381  0.27922849  1.0
  F  F437  1  0.93780370  0.21993417  0.25982347  1.0
  F  F438  1  0.02122479  0.37300766  0.07817264  1.0
  F  F439  1  0.98199852  0.61989679  0.23566814  1.0
  F  F440  1  0.00129144  0.13836981  0.42247758  1.0
  F  F441  1  0.98969246  0.35596524  0.38188532  1.0
  F  F442  1  0.86718039  0.34986272  0.38596548  1.0
  F  F443  1  0.58792184  0.23558319  0.51141527  1.0
  F  F444  1  0.21944691  0.02822958  0.28962447  1.0
  F  F445  1  0.20950744  0.90535776  0.26791249  1.0
  F  F446  1  0.18539343  0.59494381  0.52922849  1.0
  F  F447  1  0.18780370  0.46993417  0.50982347  1.0
  F  F448  1  0.27122479  0.62300766  0.32817264  1.0
  F  F449  1  0.23199852  0.86989679  0.48566814  1.0
  F  F450  1  0.25129144  0.38836981  0.67247758  1.0
  F  F451  1  0.23969246  0.60596524  0.63188532  1.0
  F  F452  1  0.11718039  0.59986272  0.63596548  1.0
  F  F453  1  0.83792184  0.48558319  0.76141527  1.0
  F  F454  1  0.46944691  0.27822958  0.53962447  1.0
  F  F455  1  0.45950744  0.15535776  0.51791249  1.0
  F  F456  1  0.43539343  0.84494381  0.77922849  1.0
  F  F457  1  0.43780370  0.71993417  0.75982347  1.0
  F  F458  1  0.52122479  0.87300766  0.57817264  1.0
  F  F459  1  0.48199852  0.11989679  0.73566814  1.0
