# generated using pymatgen
data_Zn4H29C56N5(O5F4)3
_symmetry_space_group_name_H-M   'P 1'
_cell_length_a   19.26853217
_cell_length_b   20.07695016
_cell_length_c   21.46368985
_cell_angle_alpha   91.65802309
_cell_angle_beta   89.51854238
_cell_angle_gamma   89.85981670
_symmetry_Int_Tables_number   1
_chemical_formula_structural   Zn4H29C56N5(O5F4)3
_chemical_formula_sum   'Zn16 H116 C224 N20 O60 F48'
_cell_volume   8299.50108702
_cell_formula_units_Z   4
loop_
 _symmetry_equiv_pos_site_id
 _symmetry_equiv_pos_as_xyz
  1  'x, y, z'
loop_
 _atom_site_type_symbol
 _atom_site_label
 _atom_site_symmetry_multiplicity
 _atom_site_fract_x
 _atom_site_fract_y
 _atom_site_fract_z
 _atom_site_occupancy
  Zn  Zn0  1  0.76212698  0.67061307  0.85558291  1.0
  Zn  Zn1  1  0.64381050  0.78060386  0.85665607  1.0
  Zn  Zn2  1  0.64515454  0.67133995  0.96031175  1.0
  Zn  Zn3  1  0.75943634  0.78462932  0.96085125  1.0
  Zn  Zn4  1  0.01212698  0.92061307  0.10558291  1.0
  Zn  Zn5  1  0.89381050  0.03060386  0.10665607  1.0
  Zn  Zn6  1  0.89515454  0.92133995  0.21031175  1.0
  Zn  Zn7  1  0.00943634  0.03462932  0.21085125  1.0
  Zn  Zn8  1  0.26212698  0.17061307  0.35558291  1.0
  Zn  Zn9  1  0.14381050  0.28060386  0.35665607  1.0
  Zn  Zn10  1  0.14515454  0.17133995  0.46031175  1.0
  Zn  Zn11  1  0.25943634  0.28462932  0.46085125  1.0
  Zn  Zn12  1  0.51212698  0.42061307  0.60558291  1.0
  Zn  Zn13  1  0.39381050  0.53060386  0.60665607  1.0
  Zn  Zn14  1  0.39515454  0.42133995  0.71031175  1.0
  Zn  Zn15  1  0.50943634  0.53462932  0.71085125  1.0
  H  H16  1  0.30605581  0.75174122  0.81662806  1.0
  H  H17  1  0.11529896  0.66569650  0.95436393  1.0
  H  H18  1  0.95110430  0.82104820  0.85597335  1.0
  H  H19  1  0.37124706  0.91347839  0.97664426  1.0
  H  H20  1  0.42345880  0.96455983  0.88257328  1.0
  H  H21  1  0.36120686  0.95293962  0.78124130  1.0
  H  H22  1  0.25008925  0.88871913  0.77751230  1.0
  H  H23  1  0.82481445  0.36854332  0.95833085  1.0
  H  H24  1  0.72332828  0.37618863  0.77892372  1.0
  H  H25  1  0.86498928  0.31790682  0.81895733  1.0
  H  H26  1  0.81817006  0.21801027  0.77398735  1.0
  H  H27  1  0.75963044  0.28079397  0.75610884  1.0
  H  H28  1  0.70140174  0.17962719  0.78808734  1.0
  H  H29  1  0.68013348  0.24454609  0.84272861  1.0
  H  H30  1  0.82899549  0.08516599  0.93226554  1.0
  H  H31  1  0.79880627  0.97059021  0.95395030  1.0
  H  H32  1  0.80688490  0.18555594  0.96236296  1.0
  H  H33  1  0.74779685  0.24899567  0.94670793  1.0
  H  H34  1  0.88252857  0.21715622  0.87420607  1.0
  H  H35  1  0.87468648  0.28111919  0.93053396  1.0
  H  H36  1  0.64418614  0.80666820  0.64788806  1.0
  H  H37  1  0.65370771  0.77964016  0.53506694  1.0
  H  H38  1  0.77754675  0.60668687  0.57658566  1.0
  H  H39  1  0.70604957  0.79702244  0.35727470  1.0
  H  H40  1  0.64723908  0.64853771  0.26781825  1.0
  H  H41  1  0.64790418  0.63853694  0.15347976  1.0
  H  H42  1  0.71231740  0.56613549  0.50277205  1.0
  H  H43  1  0.77257387  0.58494316  0.44315414  1.0
  H  H44  1  0.68069742  0.58361374  0.42911270  1.0
  H  H45  1  0.55605581  0.00174122  0.06662806  1.0
  H  H46  1  0.36529896  0.91569650  0.20436393  1.0
  H  H47  1  0.20110430  0.07104820  0.10597335  1.0
  H  H48  1  0.62124706  0.16347839  0.22664426  1.0
  H  H49  1  0.67345880  0.21455983  0.13257328  1.0
  H  H50  1  0.61120686  0.20293962  0.03124130  1.0
  H  H51  1  0.50008925  0.13871913  0.02751230  1.0
  H  H52  1  0.07481445  0.61854332  0.20833085  1.0
  H  H53  1  0.97332828  0.62618863  0.02892372  1.0
  H  H54  1  0.11498928  0.56790682  0.06895733  1.0
  H  H55  1  0.06817006  0.46801027  0.02398735  1.0
  H  H56  1  0.00963044  0.53079397  0.00610884  1.0
  H  H57  1  0.95140174  0.42962719  0.03808734  1.0
  H  H58  1  0.93013348  0.49454609  0.09272861  1.0
  H  H59  1  0.07899549  0.33516599  0.18226554  1.0
  H  H60  1  0.04880627  0.22059021  0.20395030  1.0
  H  H61  1  0.05688490  0.43555594  0.21236296  1.0
  H  H62  1  0.99779685  0.49899567  0.19670793  1.0
  H  H63  1  0.13252857  0.46715622  0.12420607  1.0
  H  H64  1  0.12468648  0.53111919  0.18053396  1.0
  H  H65  1  0.89418614  0.05666820  0.89788806  1.0
  H  H66  1  0.90370771  0.02964016  0.78506694  1.0
  H  H67  1  0.02754675  0.85668687  0.82658566  1.0
  H  H68  1  0.95604957  0.04702244  0.60727470  1.0
  H  H69  1  0.89723908  0.89853771  0.51781825  1.0
  H  H70  1  0.89790418  0.88853694  0.40347976  1.0
  H  H71  1  0.96231740  0.81613549  0.75277205  1.0
  H  H72  1  0.02257387  0.83494316  0.69315414  1.0
  H  H73  1  0.93069742  0.83361374  0.67911270  1.0
  H  H74  1  0.80605581  0.25174122  0.31662806  1.0
  H  H75  1  0.61529896  0.16569650  0.45436393  1.0
  H  H76  1  0.45110430  0.32104820  0.35597335  1.0
  H  H77  1  0.87124706  0.41347839  0.47664426  1.0
  H  H78  1  0.92345880  0.46455983  0.38257328  1.0
  H  H79  1  0.86120686  0.45293962  0.28124130  1.0
  H  H80  1  0.75008925  0.38871913  0.27751230  1.0
  H  H81  1  0.32481445  0.86854332  0.45833085  1.0
  H  H82  1  0.22332828  0.87618863  0.27892372  1.0
  H  H83  1  0.36498928  0.81790682  0.31895733  1.0
  H  H84  1  0.31817006  0.71801027  0.27398735  1.0
  H  H85  1  0.25963044  0.78079397  0.25610884  1.0
  H  H86  1  0.20140174  0.67962719  0.28808734  1.0
  H  H87  1  0.18013348  0.74454609  0.34272861  1.0
  H  H88  1  0.32899549  0.58516599  0.43226554  1.0
  H  H89  1  0.29880627  0.47059021  0.45395030  1.0
  H  H90  1  0.30688490  0.68555594  0.46236296  1.0
  H  H91  1  0.24779685  0.74899567  0.44670793  1.0
  H  H92  1  0.38252857  0.71715622  0.37420607  1.0
  H  H93  1  0.37468648  0.78111919  0.43053396  1.0
  H  H94  1  0.14418614  0.30666820  0.14788806  1.0
  H  H95  1  0.15370771  0.27964016  0.03506694  1.0
  H  H96  1  0.27754675  0.10668687  0.07658566  1.0
  H  H97  1  0.20604957  0.29702244  0.85727470  1.0
  H  H98  1  0.14723908  0.14853771  0.76781825  1.0
  H  H99  1  0.14790418  0.13853694  0.65347976  1.0
  H  H100  1  0.21231740  0.06613549  0.00277205  1.0
  H  H101  1  0.27257387  0.08494316  0.94315414  1.0
  H  H102  1  0.18069742  0.08361374  0.92911270  1.0
  H  H103  1  0.05605581  0.50174122  0.56662806  1.0
  H  H104  1  0.86529896  0.41569650  0.70436393  1.0
  H  H105  1  0.70110430  0.57104820  0.60597335  1.0
  H  H106  1  0.12124706  0.66347839  0.72664426  1.0
  H  H107  1  0.17345880  0.71455983  0.63257328  1.0
  H  H108  1  0.11120686  0.70293962  0.53124130  1.0
  H  H109  1  0.00008925  0.63871913  0.52751230  1.0
  H  H110  1  0.57481445  0.11854332  0.70833085  1.0
  H  H111  1  0.47332828  0.12618863  0.52892372  1.0
  H  H112  1  0.61498928  0.06790682  0.56895733  1.0
  H  H113  1  0.56817006  0.96801027  0.52398735  1.0
  H  H114  1  0.50963044  0.03079397  0.50610884  1.0
  H  H115  1  0.45140174  0.92962719  0.53808734  1.0
  H  H116  1  0.43013348  0.99454609  0.59272861  1.0
  H  H117  1  0.57899549  0.83516599  0.68226554  1.0
  H  H118  1  0.54880627  0.72059021  0.70395030  1.0
  H  H119  1  0.55688490  0.93555594  0.71236296  1.0
  H  H120  1  0.49779685  0.99899567  0.69670793  1.0
  H  H121  1  0.63252857  0.96715622  0.62420607  1.0
  H  H122  1  0.62468648  0.03111919  0.68053396  1.0
  H  H123  1  0.39418614  0.55666820  0.39788806  1.0
  H  H124  1  0.40370771  0.52964016  0.28506694  1.0
  H  H125  1  0.52754675  0.35668687  0.32658566  1.0
  H  H126  1  0.45604957  0.54702244  0.10727470  1.0
  H  H127  1  0.39723908  0.39853771  0.01781825  1.0
  H  H128  1  0.39790418  0.38853694  0.90347976  1.0
  H  H129  1  0.46231740  0.31613549  0.25277205  1.0
  H  H130  1  0.52257387  0.33494316  0.19315414  1.0
  H  H131  1  0.43069742  0.33361374  0.17911270  1.0
  C  C132  1  0.44458703  0.72289691  0.90878454  1.0
  C  C133  1  0.40933715  0.70001090  0.96052452  1.0
  C  C134  1  0.33680278  0.69974657  0.96254467  1.0
  C  C135  1  0.29750502  0.72122157  0.91215616  1.0
  C  C136  1  0.33364698  0.73844041  0.85833146  1.0
  C  C137  1  0.40598688  0.74238177  0.85788327  1.0
  C  C138  1  0.18263768  0.76561301  0.89766772  1.0
  C  C139  1  0.10572817  0.75600154  0.90153118  1.0
  C  C140  1  0.08010418  0.70025907  0.93247012  1.0
  C  C141  1  0.00887438  0.68800616  0.93507268  1.0
  C  C142  1  0.96138906  0.73046693  0.90775604  1.0
  C  C143  1  0.98650679  0.78658651  0.87779878  1.0
  C  C144  1  0.05773314  0.79898626  0.87480452  1.0
  C  C145  1  0.25541859  0.86670821  0.87521143  1.0
  C  C146  1  0.34600203  0.90888068  0.93165185  1.0
  C  C147  1  0.37472965  0.93783937  0.87942344  1.0
  C  C148  1  0.33992137  0.93124390  0.82302020  1.0
  C  C149  1  0.27818932  0.89571323  0.82075389  1.0
  C  C150  1  0.70711982  0.47840577  0.90655618  1.0
  C  C151  1  0.75355025  0.44708484  0.94527023  1.0
  C  C152  1  0.78891084  0.38931730  0.92529426  1.0
  C  C153  1  0.77853951  0.36032625  0.86571153  1.0
  C  C154  1  0.73267033  0.39343441  0.82654602  1.0
  C  C155  1  0.69735257  0.45096648  0.84715474  1.0
  C  C156  1  0.81897879  0.29840102  0.84284052  1.0
  C  C157  1  0.78025758  0.25314665  0.79503934  1.0
  C  C158  1  0.72237703  0.21238811  0.82498898  1.0
  C  C159  1  0.73234993  0.10987783  0.88707346  1.0
  C  C160  1  0.77793595  0.06751413  0.91811335  1.0
  C  C161  1  0.76140664  0.00119449  0.92983981  1.0
  C  C162  1  0.69820172  0.97450867  0.91005860  1.0
  C  C163  1  0.65272301  0.01514430  0.87854644  1.0
  C  C164  1  0.66928873  0.08141846  0.86740987  1.0
  C  C165  1  0.78601080  0.21504063  0.92468647  1.0
  C  C166  1  0.84550117  0.25335366  0.89490988  1.0
  C  C167  1  0.70413010  0.72151002  0.67592983  1.0
  C  C168  1  0.67334539  0.76258509  0.63209806  1.0
  C  C169  1  0.67884777  0.74732366  0.56790490  1.0
  C  C170  1  0.71497158  0.69038403  0.54677380  1.0
  C  C171  1  0.74725475  0.65038975  0.59051367  1.0
  C  C172  1  0.74118797  0.66588524  0.65413965  1.0
  C  C173  1  0.71724986  0.67135184  0.47850766  1.0
  C  C174  1  0.71874937  0.70010844  0.37466021  1.0
  C  C175  1  0.69938419  0.74425213  0.27149348  1.0
  C  C176  1  0.67096733  0.68803656  0.24123819  1.0
  C  C177  1  0.67116979  0.68231337  0.17614840  1.0
  C  C178  1  0.70115481  0.73208616  0.14013705  1.0
  C  C179  1  0.72993303  0.78749329  0.17066010  1.0
  C  C180  1  0.72777115  0.79422516  0.23548149  1.0
  C  C181  1  0.72116099  0.59707021  0.46256246  1.0
  C  C182  1  0.70158657  0.73048925  0.07068811  1.0
  C  C183  1  0.69951286  0.90028894  0.90958708  1.0
  C  C184  1  0.70368200  0.72308958  0.74537909  1.0
  C  C185  1  0.88407086  0.72936959  0.90793410  1.0
  C  C186  1  0.70577861  0.55262638  0.90709233  1.0
  C  C187  1  0.52190064  0.72418397  0.90872909  1.0
  C  C188  1  0.69458703  0.97289691  0.15878454  1.0
  C  C189  1  0.65933715  0.95001090  0.21052452  1.0
  C  C190  1  0.58680278  0.94974657  0.21254467  1.0
  C  C191  1  0.54750502  0.97122157  0.16215616  1.0
  C  C192  1  0.58364698  0.98844041  0.10833146  1.0
  C  C193  1  0.65598688  0.99238177  0.10788327  1.0
  C  C194  1  0.43263768  0.01561301  0.14766772  1.0
  C  C195  1  0.35572817  0.00600154  0.15153118  1.0
  C  C196  1  0.33010418  0.95025907  0.18247012  1.0
  C  C197  1  0.25887438  0.93800616  0.18507268  1.0
  C  C198  1  0.21138906  0.98046693  0.15775604  1.0
  C  C199  1  0.23650679  0.03658651  0.12779878  1.0
  C  C200  1  0.30773314  0.04898626  0.12480452  1.0
  C  C201  1  0.50541859  0.11670821  0.12521143  1.0
  C  C202  1  0.59600203  0.15888068  0.18165185  1.0
  C  C203  1  0.62472965  0.18783937  0.12942344  1.0
  C  C204  1  0.58992137  0.18124390  0.07302020  1.0
  C  C205  1  0.52818932  0.14571323  0.07075389  1.0
  C  C206  1  0.95711982  0.72840577  0.15655618  1.0
  C  C207  1  0.00355025  0.69708484  0.19527023  1.0
  C  C208  1  0.03891084  0.63931730  0.17529426  1.0
  C  C209  1  0.02853951  0.61032625  0.11571153  1.0
  C  C210  1  0.98267033  0.64343441  0.07654602  1.0
  C  C211  1  0.94735257  0.70096648  0.09715474  1.0
  C  C212  1  0.06897879  0.54840102  0.09284052  1.0
  C  C213  1  0.03025758  0.50314665  0.04503934  1.0
  C  C214  1  0.97237703  0.46238811  0.07498898  1.0
  C  C215  1  0.98234993  0.35987783  0.13707346  1.0
  C  C216  1  0.02793595  0.31751413  0.16811335  1.0
  C  C217  1  0.01140664  0.25119449  0.17983981  1.0
  C  C218  1  0.94820172  0.22450867  0.16005860  1.0
  C  C219  1  0.90272301  0.26514430  0.12854644  1.0
  C  C220  1  0.91928873  0.33141846  0.11740987  1.0
  C  C221  1  0.03601080  0.46504063  0.17468647  1.0
  C  C222  1  0.09550117  0.50335366  0.14490988  1.0
  C  C223  1  0.95413010  0.97151002  0.92592983  1.0
  C  C224  1  0.92334539  0.01258509  0.88209806  1.0
  C  C225  1  0.92884777  0.99732366  0.81790490  1.0
  C  C226  1  0.96497158  0.94038403  0.79677380  1.0
  C  C227  1  0.99725475  0.90038975  0.84051367  1.0
  C  C228  1  0.99118797  0.91588524  0.90413965  1.0
  C  C229  1  0.96724986  0.92135184  0.72850766  1.0
  C  C230  1  0.96874937  0.95010844  0.62466021  1.0
  C  C231  1  0.94938419  0.99425213  0.52149348  1.0
  C  C232  1  0.92096733  0.93803656  0.49123819  1.0
  C  C233  1  0.92116979  0.93231337  0.42614840  1.0
  C  C234  1  0.95115481  0.98208616  0.39013705  1.0
  C  C235  1  0.97993303  0.03749329  0.42066010  1.0
  C  C236  1  0.97777115  0.04422516  0.48548149  1.0
  C  C237  1  0.97116099  0.84707021  0.71256246  1.0
  C  C238  1  0.95158657  0.98048925  0.32068811  1.0
  C  C239  1  0.94951286  0.15028894  0.15958708  1.0
  C  C240  1  0.95368200  0.97308958  0.99537909  1.0
  C  C241  1  0.13407086  0.97936959  0.15793410  1.0
  C  C242  1  0.95577861  0.80262638  0.15709233  1.0
  C  C243  1  0.77190064  0.97418397  0.15872909  1.0
  C  C244  1  0.94458703  0.22289691  0.40878454  1.0
  C  C245  1  0.90933715  0.20001090  0.46052452  1.0
  C  C246  1  0.83680278  0.19974657  0.46254467  1.0
  C  C247  1  0.79750502  0.22122157  0.41215616  1.0
  C  C248  1  0.83364698  0.23844041  0.35833146  1.0
  C  C249  1  0.90598688  0.24238177  0.35788327  1.0
  C  C250  1  0.68263768  0.26561301  0.39766772  1.0
  C  C251  1  0.60572817  0.25600154  0.40153118  1.0
  C  C252  1  0.58010418  0.20025907  0.43247012  1.0
  C  C253  1  0.50887438  0.18800616  0.43507268  1.0
  C  C254  1  0.46138906  0.23046693  0.40775604  1.0
  C  C255  1  0.48650679  0.28658651  0.37779878  1.0
  C  C256  1  0.55773314  0.29898626  0.37480452  1.0
  C  C257  1  0.75541859  0.36670821  0.37521143  1.0
  C  C258  1  0.84600203  0.40888068  0.43165185  1.0
  C  C259  1  0.87472965  0.43783937  0.37942344  1.0
  C  C260  1  0.83992137  0.43124390  0.32302020  1.0
  C  C261  1  0.77818932  0.39571323  0.32075389  1.0
  C  C262  1  0.20711982  0.97840577  0.40655618  1.0
  C  C263  1  0.25355025  0.94708484  0.44527023  1.0
  C  C264  1  0.28891084  0.88931730  0.42529426  1.0
  C  C265  1  0.27853951  0.86032625  0.36571153  1.0
  C  C266  1  0.23267033  0.89343441  0.32654602  1.0
  C  C267  1  0.19735257  0.95096648  0.34715474  1.0
  C  C268  1  0.31897879  0.79840102  0.34284052  1.0
  C  C269  1  0.28025758  0.75314665  0.29503934  1.0
  C  C270  1  0.22237703  0.71238811  0.32498898  1.0
  C  C271  1  0.23234993  0.60987783  0.38707346  1.0
  C  C272  1  0.27793595  0.56751413  0.41811335  1.0
  C  C273  1  0.26140664  0.50119449  0.42983981  1.0
  C  C274  1  0.19820172  0.47450867  0.41005860  1.0
  C  C275  1  0.15272301  0.51514430  0.37854644  1.0
  C  C276  1  0.16928873  0.58141846  0.36740987  1.0
  C  C277  1  0.28601080  0.71504063  0.42468647  1.0
  C  C278  1  0.34550117  0.75335366  0.39490988  1.0
  C  C279  1  0.20413010  0.22151002  0.17592983  1.0
  C  C280  1  0.17334539  0.26258509  0.13209806  1.0
  C  C281  1  0.17884777  0.24732366  0.06790490  1.0
  C  C282  1  0.21497158  0.19038403  0.04677380  1.0
  C  C283  1  0.24725475  0.15038975  0.09051367  1.0
  C  C284  1  0.24118797  0.16588524  0.15413965  1.0
  C  C285  1  0.21724986  0.17135184  0.97850766  1.0
  C  C286  1  0.21874937  0.20010844  0.87466021  1.0
  C  C287  1  0.19938419  0.24425213  0.77149348  1.0
  C  C288  1  0.17096733  0.18803656  0.74123819  1.0
  C  C289  1  0.17116979  0.18231337  0.67614840  1.0
  C  C290  1  0.20115481  0.23208616  0.64013705  1.0
  C  C291  1  0.22993303  0.28749329  0.67066010  1.0
  C  C292  1  0.22777115  0.29422516  0.73548149  1.0
  C  C293  1  0.22116099  0.09707021  0.96256246  1.0
  C  C294  1  0.20158657  0.23048925  0.57068811  1.0
  C  C295  1  0.19951286  0.40028894  0.40958708  1.0
  C  C296  1  0.20368200  0.22308958  0.24537909  1.0
  C  C297  1  0.38407086  0.22936959  0.40793410  1.0
  C  C298  1  0.20577861  0.05262638  0.40709233  1.0
  C  C299  1  0.02190064  0.22418397  0.40872909  1.0
  C  C300  1  0.19458703  0.47289691  0.65878454  1.0
  C  C301  1  0.15933715  0.45001090  0.71052452  1.0
  C  C302  1  0.08680278  0.44974657  0.71254467  1.0
  C  C303  1  0.04750502  0.47122157  0.66215616  1.0
  C  C304  1  0.08364698  0.48844041  0.60833146  1.0
  C  C305  1  0.15598688  0.49238177  0.60788327  1.0
  C  C306  1  0.93263768  0.51561301  0.64766772  1.0
  C  C307  1  0.85572817  0.50600154  0.65153118  1.0
  C  C308  1  0.83010418  0.45025907  0.68247012  1.0
  C  C309  1  0.75887438  0.43800616  0.68507268  1.0
  C  C310  1  0.71138906  0.48046693  0.65775604  1.0
  C  C311  1  0.73650679  0.53658651  0.62779878  1.0
  C  C312  1  0.80773314  0.54898626  0.62480452  1.0
  C  C313  1  0.00541859  0.61670821  0.62521143  1.0
  C  C314  1  0.09600203  0.65888068  0.68165185  1.0
  C  C315  1  0.12472965  0.68783937  0.62942344  1.0
  C  C316  1  0.08992137  0.68124390  0.57302020  1.0
  C  C317  1  0.02818932  0.64571323  0.57075389  1.0
  C  C318  1  0.45711982  0.22840577  0.65655618  1.0
  C  C319  1  0.50355025  0.19708484  0.69527023  1.0
  C  C320  1  0.53891084  0.13931730  0.67529426  1.0
  C  C321  1  0.52853951  0.11032625  0.61571153  1.0
  C  C322  1  0.48267033  0.14343441  0.57654602  1.0
  C  C323  1  0.44735257  0.20096648  0.59715474  1.0
  C  C324  1  0.56897879  0.04840102  0.59284052  1.0
  C  C325  1  0.53025758  0.00314665  0.54503934  1.0
  C  C326  1  0.47237703  0.96238811  0.57498898  1.0
  C  C327  1  0.48234993  0.85987783  0.63707346  1.0
  C  C328  1  0.52793595  0.81751413  0.66811335  1.0
  C  C329  1  0.51140664  0.75119449  0.67983981  1.0
  C  C330  1  0.44820172  0.72450867  0.66005860  1.0
  C  C331  1  0.40272301  0.76514430  0.62854644  1.0
  C  C332  1  0.41928873  0.83141846  0.61740987  1.0
  C  C333  1  0.53601080  0.96504063  0.67468647  1.0
  C  C334  1  0.59550117  0.00335366  0.64490988  1.0
  C  C335  1  0.45413010  0.47151002  0.42592983  1.0
  C  C336  1  0.42334539  0.51258509  0.38209806  1.0
  C  C337  1  0.42884777  0.49732366  0.31790490  1.0
  C  C338  1  0.46497158  0.44038403  0.29677380  1.0
  C  C339  1  0.49725475  0.40038975  0.34051367  1.0
  C  C340  1  0.49118797  0.41588524  0.40413965  1.0
  C  C341  1  0.46724986  0.42135184  0.22850766  1.0
  C  C342  1  0.46874937  0.45010844  0.12466021  1.0
  C  C343  1  0.44938419  0.49425213  0.02149348  1.0
  C  C344  1  0.42096733  0.43803656  0.99123819  1.0
  C  C345  1  0.42116979  0.43231337  0.92614840  1.0
  C  C346  1  0.45115481  0.48208616  0.89013705  1.0
  C  C347  1  0.47993303  0.53749329  0.92066010  1.0
  C  C348  1  0.47777115  0.54422516  0.98548149  1.0
  C  C349  1  0.47116099  0.34707021  0.21256246  1.0
  C  C350  1  0.45158657  0.48048925  0.82068811  1.0
  C  C351  1  0.44951286  0.65028894  0.65958708  1.0
  C  C352  1  0.45368200  0.47308958  0.49537909  1.0
  C  C353  1  0.63407086  0.47936959  0.65793410  1.0
  C  C354  1  0.45577861  0.30262638  0.65709233  1.0
  C  C355  1  0.27190064  0.47418397  0.65872909  1.0
  N  N356  1  0.22478676  0.71961315  0.91588541  1.0
  N  N357  1  0.28683344  0.87285961  0.93093891  1.0
  N  N358  1  0.75246325  0.17470490  0.87556799  1.0
  N  N359  1  0.71495756  0.71778068  0.43693790  1.0
  N  N360  1  0.69947164  0.75129763  0.33714639  1.0
  N  N361  1  0.47478676  0.96961315  0.16588541  1.0
  N  N362  1  0.53683344  0.12285961  0.18093891  1.0
  N  N363  1  0.00246325  0.42470490  0.12556799  1.0
  N  N364  1  0.96495756  0.96778068  0.68693790  1.0
  N  N365  1  0.94947164  0.00129763  0.58714639  1.0
  N  N366  1  0.72478676  0.21961315  0.41588541  1.0
  N  N367  1  0.78683344  0.37285961  0.43093891  1.0
  N  N368  1  0.25246325  0.67470490  0.37556799  1.0
  N  N369  1  0.21495756  0.21778068  0.93693790  1.0
  N  N370  1  0.19947164  0.25129763  0.83714639  1.0
  N  N371  1  0.97478676  0.46961315  0.66588541  1.0
  N  N372  1  0.03683344  0.62285961  0.68093891  1.0
  N  N373  1  0.50246325  0.92470490  0.62556799  1.0
  N  N374  1  0.46495756  0.46778068  0.18693790  1.0
  N  N375  1  0.44947164  0.50129763  0.08714639  1.0
  O  O376  1  0.19567238  0.82600159  0.86994870  1.0
  O  O377  1  0.74074184  0.64696433  0.35279036  1.0
  O  O378  1  0.70263253  0.72679674  0.90835061  1.0
  O  O379  1  0.74699560  0.68321473  0.76828925  1.0
  O  O380  1  0.54664603  0.76472906  0.87062996  1.0
  O  O381  1  0.66235963  0.57779985  0.94574449  1.0
  O  O382  1  0.66006882  0.76402435  0.76907812  1.0
  O  O383  1  0.74829888  0.57726555  0.86880036  1.0
  O  O384  1  0.54763278  0.68445301  0.94678541  1.0
  O  O385  1  0.65975051  0.68835648  0.04781903  1.0
  O  O386  1  0.85713624  0.77088594  0.94666378  1.0
  O  O387  1  0.74371343  0.77159060  0.04821562  1.0
  O  O388  1  0.85911333  0.68711825  0.86932286  1.0
  O  O389  1  0.65746048  0.87458172  0.87115251  1.0
  O  O390  1  0.74241019  0.87753896  0.94770453  1.0
  O  O391  1  0.44567238  0.07600159  0.11994870  1.0
  O  O392  1  0.99074184  0.89696433  0.60279036  1.0
  O  O393  1  0.95263253  0.97679674  0.15835061  1.0
  O  O394  1  0.99699560  0.93321473  0.01828925  1.0
  O  O395  1  0.79664603  0.01472906  0.12062996  1.0
  O  O396  1  0.91235963  0.82779985  0.19574449  1.0
  O  O397  1  0.91006882  0.01402435  0.01907812  1.0
  O  O398  1  0.99829888  0.82726555  0.11880036  1.0
  O  O399  1  0.79763278  0.93445301  0.19678541  1.0
  O  O400  1  0.90975051  0.93835648  0.29781903  1.0
  O  O401  1  0.10713624  0.02088594  0.19666378  1.0
  O  O402  1  0.99371343  0.02159060  0.29821562  1.0
  O  O403  1  0.10911333  0.93711825  0.11932286  1.0
  O  O404  1  0.90746048  0.12458172  0.12115251  1.0
  O  O405  1  0.99241019  0.12753896  0.19770453  1.0
  O  O406  1  0.69567238  0.32600159  0.36994870  1.0
  O  O407  1  0.24074184  0.14696433  0.85279036  1.0
  O  O408  1  0.20263253  0.22679674  0.40835061  1.0
  O  O409  1  0.24699560  0.18321473  0.26828925  1.0
  O  O410  1  0.04664603  0.26472906  0.37062996  1.0
  O  O411  1  0.16235963  0.07779985  0.44574449  1.0
  O  O412  1  0.16006882  0.26402435  0.26907812  1.0
  O  O413  1  0.24829888  0.07726555  0.36880036  1.0
  O  O414  1  0.04763278  0.18445301  0.44678541  1.0
  O  O415  1  0.15975051  0.18835648  0.54781903  1.0
  O  O416  1  0.35713624  0.27088594  0.44666378  1.0
  O  O417  1  0.24371343  0.27159060  0.54821562  1.0
  O  O418  1  0.35911333  0.18711825  0.36932286  1.0
  O  O419  1  0.15746048  0.37458172  0.37115251  1.0
  O  O420  1  0.24241019  0.37753896  0.44770453  1.0
  O  O421  1  0.94567238  0.57600159  0.61994870  1.0
  O  O422  1  0.49074184  0.39696433  0.10279036  1.0
  O  O423  1  0.45263253  0.47679674  0.65835061  1.0
  O  O424  1  0.49699560  0.43321473  0.51828925  1.0
  O  O425  1  0.29664603  0.51472906  0.62062996  1.0
  O  O426  1  0.41235963  0.32779985  0.69574449  1.0
  O  O427  1  0.41006882  0.51402435  0.51907812  1.0
  O  O428  1  0.49829888  0.32726555  0.61880036  1.0
  O  O429  1  0.29763278  0.43445301  0.69678541  1.0
  O  O430  1  0.40975051  0.43835648  0.79781903  1.0
  O  O431  1  0.60713624  0.52088594  0.69666378  1.0
  O  O432  1  0.49371343  0.52159060  0.79821562  1.0
  O  O433  1  0.60911333  0.43711825  0.61932286  1.0
  O  O434  1  0.40746048  0.62458172  0.62115251  1.0
  O  O435  1  0.49241019  0.62753896  0.69770453  1.0
  F  F436  1  0.43708842  0.76465179  0.80650707  1.0
  F  F437  1  0.07772081  0.85312342  0.84434524  1.0
  F  F438  1  0.98679429  0.63369243  0.96427356  1.0
  F  F439  1  0.30478807  0.67679660  0.01347711  1.0
  F  F440  1  0.44473519  0.67619350  0.00879056  1.0
  F  F441  1  0.65275906  0.47911769  0.80802107  1.0
  F  F442  1  0.62188635  0.11811889  0.83812655  1.0
  F  F443  1  0.59177169  0.99091856  0.85818673  1.0
  F  F444  1  0.76532576  0.47029049  0.00338632  1.0
  F  F445  1  0.77178276  0.62520553  0.69424254  1.0
  F  F446  1  0.75650983  0.84784367  0.26359199  1.0
  F  F447  1  0.76090039  0.83514998  0.13769395  1.0
  F  F448  1  0.68708842  0.01465179  0.05650707  1.0
  F  F449  1  0.32772081  0.10312342  0.09434524  1.0
  F  F450  1  0.23679429  0.88369243  0.21427356  1.0
  F  F451  1  0.55478807  0.92679660  0.26347711  1.0
  F  F452  1  0.69473519  0.92619350  0.25879056  1.0
  F  F453  1  0.90275906  0.72911769  0.05802107  1.0
  F  F454  1  0.87188635  0.36811889  0.08812655  1.0
  F  F455  1  0.84177169  0.24091856  0.10818673  1.0
  F  F456  1  0.01532576  0.72029049  0.25338632  1.0
  F  F457  1  0.02178276  0.87520553  0.94424254  1.0
  F  F458  1  0.00650983  0.09784367  0.51359199  1.0
  F  F459  1  0.01090039  0.08514998  0.38769395  1.0
  F  F460  1  0.93708842  0.26465179  0.30650707  1.0
  F  F461  1  0.57772081  0.35312342  0.34434524  1.0
  F  F462  1  0.48679429  0.13369243  0.46427356  1.0
  F  F463  1  0.80478807  0.17679660  0.51347711  1.0
  F  F464  1  0.94473519  0.17619350  0.50879056  1.0
  F  F465  1  0.15275906  0.97911769  0.30802107  1.0
  F  F466  1  0.12188635  0.61811889  0.33812655  1.0
  F  F467  1  0.09177169  0.49091856  0.35818673  1.0
  F  F468  1  0.26532576  0.97029049  0.50338632  1.0
  F  F469  1  0.27178276  0.12520553  0.19424254  1.0
  F  F470  1  0.25650983  0.34784367  0.76359199  1.0
  F  F471  1  0.26090039  0.33514998  0.63769395  1.0
  F  F472  1  0.18708842  0.51465179  0.55650707  1.0
  F  F473  1  0.82772081  0.60312342  0.59434524  1.0
  F  F474  1  0.73679429  0.38369243  0.71427356  1.0
  F  F475  1  0.05478807  0.42679660  0.76347711  1.0
  F  F476  1  0.19473519  0.42619350  0.75879056  1.0
  F  F477  1  0.40275906  0.22911769  0.55802107  1.0
  F  F478  1  0.37188635  0.86811889  0.58812655  1.0
  F  F479  1  0.34177169  0.74091856  0.60818673  1.0
  F  F480  1  0.51532576  0.22029049  0.75338632  1.0
  F  F481  1  0.52178276  0.37520553  0.44424254  1.0
  F  F482  1  0.50650983  0.59784367  0.01359199  1.0
  F  F483  1  0.51090039  0.58514998  0.88769395  1.0
